[TITLE]
Generated synthetic network; 

[JUNCTIONS]
 JU1                                7094.8427
 JU3                                7093.1583
 JU4                                7036.5833
 JU5                                7056.8182
 JU6                                7063.6844
 JU7                                7044.2495
 JU8                                7117.7840
 JU9                                7134.4622
 JU10                               7097.0647
 JU11                               7096.0657
 JU12                               7056.9268
 JU13                               7105.3086
 JU14                               7016.5443
 JU15                               7092.3829
 JU16                               7076.0278
 JU17                               7093.1443
 JU18                               7058.9056
 JU19                               7088.6481
 JU20                               7081.7769
 JU21                               7098.1487
 JU22                               7114.6676
 JU23                               7048.6364
 JU25                               7128.3568
 JU26                               7088.2299
 JU27                               7071.7917
 JU28                               7088.2460
 JU29                               7060.9539
 JU30                               7088.0087
 JU31                               7095.6358
 JU32                               7088.8099
 JU33                               7092.8350
 JU34                               7106.8280
 JU35                               7078.0192
 JU36                               7091.7540
 JU37                               7037.7279
 JU38                               7067.9782
 JU39                               7060.1437
 JU40                               7069.5696
 JU41                               7032.1363
 JU42                               7040.9531
 JU43                               7046.4417
 JU44                               7042.5775
 JU45                               7044.5394
 JU46                               7070.6813
 JU47                               7037.0690
 JU48                               7089.3288
 JU49                               7090.4050
 JU50                               7126.0716
 JU51                               7082.2070
 JU52                               7075.5403
 JU53                               7073.5796
 JU54                               7077.1377
 JU55                               7084.9529
 JU56                               7105.4390
 JU57                               7109.1800
 JU58                               7140.8377
 JU59                               7087.8825
 JU60                               7049.0692
 JU61                               7109.2008
 JU62                               7121.8954
 JU63                               7077.2500
 JU64                               7062.6505
 JU65                               7056.0977
 JU66                               7155.5028
 JU67                               7103.4349
 JU68                               7059.2574
 JU69                               7047.9370
 JU70                               7051.4467
 JU71                               7127.9970
 JU72                               7089.7534
 JU73                               7123.3548
 JU74                               7042.2137
 JU75                               7123.9293
 JU76                               7088.7875
 JU77                               7055.7778
 JU78                               7077.9081
 JU79                               7093.4028
 JU80                               7146.9266
 JU81                               7082.6866
 JU82                               7066.7681
 JU83                               7102.8621
 JU84                               7041.4676
 JU85                               7051.7044
 JU86                               7040.4651
 JU87                               7047.7662
 JU88                               7083.3083
 JU89                               7071.9435
 JU90                               7142.5516
 JU91                               7078.5702
 JU92                               7086.5409
 JU93                               7105.6111
 JU94                               7088.6851
 JU95                               7067.3636
 JU96                               7107.7328
 JU97                               7102.9150
 JU98                               7092.4756
 JU99                               7075.5112
 JU100                              7136.5222
 JU101                              7089.6029
 JU102                              7095.7448
 JU103                              7055.5653
 JU104                              7074.1915
 JU105                              7044.5916
 JU106                              7105.5257
 JU107                              7079.8791
 JU108                              7058.6760
 JU109                              7101.0548
 JU110                              7080.4755
 JU111                              7046.8723
 JU112                              7073.0696
 JU113                              7114.2510
 JU114                              7085.7445
 JU115                              7073.0482
 JU116                              7122.4031
 JU117                              7082.6954
 JU118                              7102.4246
 JU119                              7171.6619
 JU120                              7100.2711
 JU121                              7070.1663
 JU122                              7068.8359
 JU123                              7101.0535
 JU124                              7061.2103
 JU125                              7103.8808
 JU126                              7121.6250
 JU127                              7071.4799
 JU128                              7059.5556
 JU129                              7130.3678
 JU130                              7132.5805
 JU131                              7079.8384
 JU132                              7069.1920
 JU133                              7086.5324
 JU134                              7096.8497
 JU135                              7074.2217
 JU136                              7115.4513
 JU137                              7055.4012
 JU138                              7100.1657
 JU139                              7106.3060
 JU140                              7101.9988
 JU141                              7072.9876
 JU142                              7062.6928
 JU143                              7038.7705
 JU144                              7069.6877
 JU145                              7068.2692
 JU146                              7053.1271
 JU147                              7036.6667
 JU148                              7037.4880
 JU149                              7043.2102
 JU150                              7114.9693
 JU151                              7059.5660
 JU153                              7068.1553
 JU154                              7114.3521
 JU155                              7068.2153
 JU156                              7065.7178
 JU157                              7098.0435
 JU158                              7091.6647
 JU159                              7126.1100
 JU160                              7167.2574
 JU161                              7153.1123
 JU162                              7056.9466
 JU163                              7108.0885
 JU164                              7081.5911
 JU165                              7117.8305
 JU166                              7108.5052
 JU167                              7156.9657
 JU168                              7095.5531
 JU169                              7084.6355
 JU170                              7085.5397
 JU171                              7076.2401
 JU172                              7061.1535
 JU173                              7137.3611
 JU174                              7077.6556
 JU175                              7133.3185
 JU176                              7068.0171
 JU177                              7070.4832
 JU178                              7052.5417
 JU179                              7029.5894
 JU180                              7050.8300
 JU181                              7075.3413
 JU182                              7069.8109
 JU183                              7096.0838
 JU184                              7077.1674
 JU185                              7060.4781
 JU186                              7128.2513
 JU187                              7084.1965
 JU188                              7101.0001
 JU189                              7096.6182
 JU190                              7092.9762
 JU191                              7125.3622
 JU192                              7109.2103
 JU193                              7086.8559
 JU194                              7072.1723
 JU195                              7051.2391
 JU196                              7055.9898
 JU197                              7098.9687
 JU198                              7095.8247
 JU199                              7057.6170
 JU200                              7058.7962
 JU201                              7034.9898
 JU202                              7049.6000
 JU203                              7063.0864
 JU204                              7043.5849
 JU205                              7041.6017
 JU206                              7034.9898
 JU207                              7120.2844
 JU208                              7078.3853
 JU209                              7152.9959
 JU210                              7084.1359
 JU211                              7077.3434
 JU212                              7052.8343
 JU213                              7128.5597
 JU214                              7092.9281
 JU215                              7057.3682
 JU216                              7083.4205
 JU217                              7118.4235
 JU218                              7090.2023
 JU219                              7107.4987
 JU220                              7100.5791
 JU221                              7114.9177
 JU222                              7141.1636
 JU223                              7097.9237
 JU224                              7101.0100
 JU225                              7054.4293
 JU226                              7148.0290
 JU227                              7155.0214
 JU228                              7073.6954
 JU229                              7070.0903
 JU230                              7071.9704
 JU231                              7070.7945
 JU232                              7103.7288
 JU233                              7072.6599
 JU234                              7086.3005
 JU235                              7103.8334
 JU236                              7156.9021
 JU237                              7080.0958
 JU238                              7096.7532
 JU239                              7107.9009
 JU240                              7043.7862
 JU241                              7072.4909
 JU242                              7098.7522
 JU243                              7106.4171
 JU244                              7096.0245
 JU245                              7153.6691
 JU246                              7066.6410
 JU247                              7041.2068
 JU248                              7079.7750
 JU249                              7071.8947
 JU250                              7060.2939
 JU251                              7113.8426
 JU252                              7081.7094
 JU253                              7083.6263
 JU254                              7113.1158
 JU255                              7080.6757
 JU256                              7124.3615
 JU257                              7094.1561
 JU258                              7101.6241
 JU259                              7149.8010
 JU260                              7099.3770
 JU261                              7031.0013
 JU262                              7077.1206
 JU263                              7068.3606
 JU264                              7075.4598
 JU265                              7034.0215
 JU266                              7031.1753
 JU267                              7057.0030
 JU268                              7034.0215
 JU269                              7085.1423
 JU270                              7081.5927
 JU271                              7102.9283
 JU272                              7056.8138
 JU273                              7060.9351
 JU274                              7147.3075
 JU275                              7137.3972
 JU276                              7093.9706
 JU277                              7080.6064
 JU278                              7091.2971
 JU279                              7069.4866
 JU280                              7056.3652
 JU281                              7141.7432
 JU282                              7102.1750
 JU283                              7062.7353
 JU284                              7077.8687
 JU285                              7114.1562
 JU286                              7096.1848
 JU287                              7104.8323
 JU288                              7110.2459
 JU289                              7090.8198
 JU290                              7050.3380
 JU291                              7080.8697
 JU292                              7104.3493
 JU293                              7096.7911
 JU294                              7090.5247
 JU295                              7080.6431
 JU296                              7070.0825
 JU297                              7096.2283
 JU298                              7077.4514
 JU299                              7084.1343
 JU300                              7097.4766
 JU301                              7091.1738
 JU302                              7090.7725
 JU303                              7067.7418
 JU304                              7082.5441
 JU305                              7141.7432
 JU306                              7091.7451
 JU307                              7085.5916
 JU308                              7083.3987
 JU309                              7086.4809
 JU310                              7122.4418
 JU311                              7061.2103
 JU312                              7079.3786
 JU313                              7097.3272
 JU314                              7097.4168
 JU315                              7103.2247
 JU316                              7058.0670
 JU317                              7078.1209
 JU318                              7100.3521
 JU319                              7079.6923
 JU320                              7100.4354
 JU321                              7110.2038
 JU322                              7075.3697
 JU323                              7081.9791
 JU324                              7049.8343
 JU325                              7072.8521
 JU326                              7063.0394
 JU327                              7068.2146
 JU328                              7084.8432
 JU329                              7079.3551
 JU330                              7124.7058
 JU331                              7089.5993
 JU332                              7073.9877
 JU333                              7111.8198
 JU334                              7056.5995
 JU335                              7119.5531
 JU336                              7055.1225
 JU337                              7082.7558
 JU338                              7087.1420
 JU339                              7080.2412
 JU340                              7087.5444
 JU341                              7103.6986
 JU342                              7112.6399
 JU343                              7118.2540
 JU344                              7068.9131
 JU345                              7101.1452
 JU346                              7100.7770
 JU347                              7093.7560
 JU348                              7100.1709
 JU349                              7119.0540
 JU350                              7074.2703
 JU351                              7065.3413
 JU352                              7080.6580
 JU353                              7080.9228
 JU354                              7031.6469
 JU355                              7037.0690
 JU356                              7051.8536
 JU357                              7060.3349
 JU358                              7035.9439
 JU359                              7079.3551
 JU360                              7084.8432
 JU361                              7143.6536
 JU362                              7084.6995
 JU363                              7057.0851
 JU364                              7106.6893
 JU365                              7076.5671
 JU366                              7050.7555
 JU367                              7080.9284
 JU368                              7097.1531
 JU369                              7096.8472
 JU370                              7104.5237
 JU371                              7057.4148
 JU372                              7082.0791
 JU373                              7063.1041
 JU374                              7120.0435
 JU375                              7091.1602
 JU376                              7055.7613
 JU377                              7076.6254
 JU378                              7057.8831
 JU379                              7084.4822
 JU380                              7158.7614
 JU381                              7131.1183
 JU382                              7101.7104
 JU383                              7042.2289
 JU384                              7104.6562
 JU385                              7038.1505
 JU386                              7083.2877
 JU387                              7090.1209
 JU388                              7076.5076
 JU389                              7072.1703
 JU390                              7063.0896
 JU391                              7087.1749
 JU392                              7052.9570
 JU393                              7069.6356
 JU394                              7061.8700
 JU395                              7090.3448
 JU396                              7065.3999
 JU397                              7039.4079
 JU398                              7080.3940
 JU399                              7122.1536
 JU400                              7070.5508
 JU401                              7070.8316
 JU402                              7093.2556
 JU403                              7135.0137
 JU404                              7095.4425
 JU405                              7112.6861
 JU406                              7042.2137
 JU407                              7083.9676
 JU408                              7103.7057
 JU409                              7095.0607
 JU410                              7076.1808
 JU411                              7108.5069
 JU412                              7087.6580
 JU413                              7067.9262
 JU414                              7090.3417
 JU415                              7132.9345
 JU416                              7120.2844
 JU417                              7118.0129
 JU418                              7097.5458
 JU419                              7078.5979
 JU420                              7079.2299
 JU421                              7093.6469
 JU422                              7057.2766
 JU423                              7135.8692
 JU424                              7117.1104
 JU425                              7064.8775
 JU426                              7110.9410
 JU427                              7117.7290
 JU428                              7064.8049
 JU429                              7099.9151
 JU430                              7091.2850
 JU431                              7088.0521
 JU432                              7081.8246
 JU433                              6995.8584
 JU434                              7077.6423
 JU435                              7090.8969
 JU436                              7131.4187
 JU437                              7058.7567
 JU438                              7055.2244
 JU439                              7031.9132
 JU440                              7047.5751
 JU441                              7065.8488
 JU442                              7030.6017
 JU443                              7066.8814
 JU444                              7067.4335
 JU445                              7004.2419
 JU446                              7078.4246
 JU447                              7081.2296
 JU448                              7051.2222
 JU449                              7052.7315
 JU450                              7078.4381
 JU451                              7146.3553
 JU452                              7116.7062
 JU453                              7126.1856
 JU454                              7089.4959
 JU455                              7072.4587
 JU456                              7087.2968
 JU457                              7104.6752
 JU458                              7087.5189
 JU459                              7085.0373
 JU460                              7081.5911
 JU461                              7093.1328
 JU462                              7038.9280
 JU463                              7113.4842
 JU464                              7085.7037
 JU465                              7118.6482
 JU466                              7038.2681
 JU467                              7073.4640
 JU468                              7083.9748
 JU469                              7074.6531
 JU470                              7051.4078
 JU471                              7033.9701
 JU472                              7058.9155
 JU473                              7061.9716
 JU474                              7046.9214
 JU475                              7063.0864
 JU476                              7077.5357
 JU477                              7051.2391
 JU478                              7102.8565
 JU479                              7054.3255
 JU480                              7048.7427
 JU481                              7033.9701
 JU482                              7092.5261
 JU483                              7140.9856
 JU484                              7085.6244
 JU485                              7079.1099
 JU486                              7073.6154
 JU487                              7068.9280
 JU488                              7134.2633
 JU489                              7097.6734
 JU490                              7052.8343
 JU491                              7055.7778
 JU492                              7078.7187
 JU493                              7078.5102
 JU494                              7054.3201
 JU495                              7057.0859
 JU496                              7133.8179
 JU497                              7119.9234
 JU498                              7055.4026
 JU499                              7083.8489
 JU500                              7043.7109
 JU501                              7120.7509
 JU502                              7110.2657
 JU503                              7076.6145
 JU504                              7133.3490
 JU505                              7037.9548
 JU506                              7077.7897
 JU507                              7072.5065
 JU508                              7051.9635
 JU509                              7108.1778
 JU510                              7058.5740
 JU511                              7059.3603
 JU512                              7076.2512
 JU513                              7104.3983
 JU514                              7138.3779
 JU515                              7069.9435
 JU516                              7070.8696
 JU517                              7063.4480
 JU518                              7063.5752
 JU519                              7090.1258
 JU520                              7082.6866
 JU521                              7137.7882
 JU522                              7114.5113
 JU523                              7096.5340
 JU524                              7082.8164
 JU525                              7075.5988
 JU526                              7101.3547
 JU527                              7069.8019
 JU528                              7109.9425
 JU529                              7063.7936
 JU530                              7070.6804
 JU531                              7090.9250
 JU532                              7119.9234
 JU533                              7090.8771
 JU534                              7116.0618
 JU535                              7092.6759
 JU536                              7140.3222
 JU537                              7083.7497
 JU538                              7146.5488
 JU539                              7169.8938
 JU540                              7075.9626
 JU541                              7052.7477
 JU542                              7114.0476
 JU543                              7083.8469
 JU544                              7093.4156
 JU545                              7124.8183
 JU546                              7070.2341
 JU547                              7082.8076
 JU548                              7082.8076
 JU549                              7135.9126
 JU550                              7126.5754
 JU551                              7103.5547
 JU552                              7103.5547
 JU553                              7098.2958
 JU554                              7098.2958
 JU555                              7096.4549
 JU556                              7049.5399
 JU557                              7034.5040
 JU558                              7106.1791
 JU559                              7085.7236
 JU560                              7046.3227
 JU561                              7072.1268
 JU562                              7102.7896
 JU563                              7090.0151
 JU564                              7087.1894
 JU565                              7098.7248
 JU566                              7115.4997
 JU567                              7092.1754
 JU568                              7059.6046
 JU569                              7107.7275
 JU570                              7059.3887
 JU571                              7101.1594
 JU572                              7091.4987
 JU573                              7088.0450
 JU574                              7077.8457
 JU575                              7137.7523
 JU576                              7078.3872
 JU577                              7044.6875
 JU578                              7088.8699
 JU579                              7141.6833
 JU580                              7092.0671
 JU581                              7137.3053
 JU582                              7105.9347
 JU583                              7093.7175
 JU584                              7132.6070
 JU585                              7056.5516
 JU586                              7156.9657
 JU587                              7111.5443
 JU588                              7074.6886
 JU589                              7105.8013
 JU590                              7099.6140
 JU591                              7090.0668
 JU592                              7109.5060
 JU593                              7067.6703
 JU594                              7042.6538
 JU595                              7077.9025
 JU596                              7092.4801
 JU597                              7077.4661
 JU598                              7119.1826
 JU599                              7112.7506
 JU600                              7097.5527
 JU601                              7096.2519
 JU602                              7020.8018
 JU603                              7085.6345
 JU604                              7072.8804
 JU605                              7074.2682
 JU606                              7086.6953
 JU607                              7110.4542
 JU608                              7097.9624
 JU609                              7084.1529
 JU610                              7103.7907
 JU611                              7061.8050
 JU612                              7053.3644
 JU613                              7070.7604
 JU614                              7078.3542
 JU615                              7050.0711
 JU616                              7153.0418
 JU617                              7050.0469
 JU618                              7112.5519
 JU619                              7083.8008
 JU620                              7058.4690
 JU621                              7083.6222
 JU622                              7064.2361
 JU623                              7084.9529
 JU624                              7073.5796
 JU625                              7083.5416
 JU626                              7065.3593
 JU627                              7089.2307
 JU628                              7088.0568
 JU629                              7092.4472
 JU630                              7090.4050
 JU631                              7127.9988
 JU632                              7100.2659
 JU633                              7065.5368
 JU634                              7097.4766
 JU635                              7106.8056
 JU636                              7082.9772
 JU637                              7067.2927
 JU638                              7054.6419
 JU639                              7099.0194
 JU640                              7054.7811
 JU641                              7052.7378
 JU642                              7094.9741
 JU643                              7069.0955
 JU644                              7093.0223
 JU645                              7133.9045
 JU646                              7053.5026
 JU647                              7156.5788
 JU648                              7080.9910
 JU649                              7041.3178
 JU650                              7112.8755
 JU651                              7025.8495
 JU652                              7050.1030
 JU653                              7120.2589
 JU654                              7085.1849