[TITLE]
Generated synthetic network; 

[JUNCTIONS]
 JU1                                7118.2674
 JU2                                7084.0070
 JU3                                7062.0606
 JU4                                7121.6692
 JU5                                7051.1667
 JU6                                7056.8148
 JU7                                7037.5046
 JU8                                7064.6300
 JU9                                7100.3094
 JU10                               7102.1961
 JU11                               7114.3106
 JU12                               7046.7081
 JU13                               7026.0362
 JU14                               7099.8620
 JU15                               7074.0129
 JU16                               7084.5054
 JU17                               7052.1256
 JU18                               7032.8976
 JU19                               7069.8339
 JU20                               7055.8292
 JU21                               7102.2785
 JU22                               7133.4608
 JU23                               7086.7095
 JU24                               7102.1573
 JU26                               7083.2578
 JU27                               7074.5926
 JU28                               7085.5829
 JU29                               7092.9351
 JU30                               7092.6357
 JU31                               7102.1541
 JU32                               7098.3102
 JU33                               7103.7805
 JU34                               7097.6337
 JU35                               7095.0509
 JU36                               7096.3831
 JU37                               7091.6070
 JU38                               7080.9534
 JU39                               7107.0697
 JU40                               7091.4797
 JU41                               7100.0977
 JU42                               7113.0741
 JU43                               7108.1737
 JU44                               7060.0825
 JU45                               7064.2300
 JU46                               7118.7156
 JU47                               7127.7155
 JU48                               7064.2882
 JU49                               7078.6111
 JU50                               7135.3539
 JU51                               7072.5961
 JU52                               7112.4186
 JU53                               7106.2834
 JU54                               7094.8721
 JU55                               7111.2072
 JU56                               7086.5551
 JU57                               7086.1202
 JU58                               7134.3808
 JU59                               7092.3713
 JU60                               7107.7041
 JU61                               7115.0170
 JU62                               7054.7533
 JU63                               7092.6457
 JU64                               7105.7161
 JU65                               7081.7375
 JU66                               7029.9263
 JU67                               7131.8926
 JU68                               7096.1962
 JU69                               7070.8143
 JU70                               7082.5301
 JU71                               7067.1115
 JU72                               7117.4399
 JU73                               7126.8568
 JU74                               7081.8500
 JU75                               7082.2535
 JU76                               7050.6670
 JU77                               7106.4693
 JU78                               7047.3317
 JU79                               7110.9517
 JU80                               7024.6210
 JU81                               7066.5989
 JU82                               7139.7924
 JU83                               7071.4881
 JU84                               7097.5748
 JU85                               7160.4385
 JU86                               7047.4977
 JU87                               7101.1414
 JU88                               7048.2166
 JU89                               7080.7456
 JU90                               7054.8293
 JU91                               7092.8552
 JU92                               7059.9386
 JU93                               7042.9643
 JU94                               7072.7571
 JU95                               7074.0976
 JU96                               7043.9468
 JU97                               7063.3720
 JU98                               7132.9307
 JU99                               7080.2452
 JU100                              7077.6908
 JU101                              7078.4015
 JU102                              7056.7127
 JU103                              7082.8302
 JU104                              7074.3000
 JU105                              7069.6560
 JU106                              7049.0143
 JU107                              7109.9190
 JU108                              7140.4435
 JU109                              7096.5422
 JU110                              7139.1194
 JU111                              7038.3499
 JU112                              7128.8369
 JU113                              7086.3168
 JU114                              7083.6403
 JU115                              7067.2362
 JU116                              7101.1429
 JU117                              7099.2813
 JU118                              7085.4873
 JU119                              7088.7841
 JU120                              7149.9250
 JU121                              7065.4659
 JU122                              7077.3917
 JU123                              7080.0296
 JU124                              7089.6388
 JU125                              7074.4133
 JU126                              7072.0560
 JU127                              7108.9377
 JU128                              7158.5319
 JU129                              7107.7568
 JU130                              7092.9008
 JU131                              7096.5366
 JU132                              7104.4174
 JU133                              7098.0557
 JU134                              7081.3558
 JU135                              7081.7616
 JU136                              7083.0759
 JU137                              7108.2914
 JU138                              7131.4719
 JU139                              7091.2140
 JU140                              7118.5135
 JU141                              7079.9147
 JU142                              7110.4070
 JU143                              7064.2300
 JU144                              7101.3847
 JU145                              7064.0922
 JU146                              7095.6001
 JU147                              7088.9458
 JU148                              7128.7130
 JU149                              7125.6063
 JU150                              7109.1341
 JU152                              7122.4786
 JU153                              7085.2285
 JU154                              7126.9059
 JU155                              7062.8640
 JU156                              7132.7965
 JU157                              7077.1628
 JU158                              7057.9650
 JU159                              7103.2088
 JU160                              7049.3492
 JU161                              7087.6776
 JU162                              7066.9344
 JU163                              7118.6598
 JU164                              7134.2919
 JU165                              7103.5978
 JU166                              7081.0908
 JU167                              7062.9295
 JU168                              7144.7358
 JU169                              7083.6444
 JU170                              7129.8075
 JU171                              7099.5846
 JU172                              7104.2358
 JU173                              7065.8151
 JU174                              7038.8913
 JU175                              7095.1123
 JU176                              7097.4735
 JU177                              7126.0341
 JU178                              7108.8497
 JU179                              7111.9535
 JU180                              7091.3145
 JU181                              7110.5660
 JU182                              7100.8755
 JU183                              7051.3763
 JU184                              7087.0121
 JU185                              7093.2942
 JU186                              7100.6455
 JU187                              7094.6419
 JU188                              7057.3745
 JU189                              7095.3568
 JU190                              7048.4023
 JU191                              7069.6230
 JU192                              7062.6042
 JU193                              7077.2981
 JU194                              7058.8650
 JU195                              7123.4141
 JU196                              7169.0949
 JU197                              7118.8008
 JU198                              7149.5558
 JU199                              7147.8595
 JU200                              7083.5157
 JU201                              7062.7222
 JU202                              7164.9500
 JU203                              7090.8334
 JU204                              7078.4867
 JU205                              7076.8301
 JU206                              7082.4427
 JU207                              7136.1459
 JU208                              7092.9375
 JU209                              7086.3226
 JU210                              7048.9277
 JU211                              7095.7849
 JU212                              7120.3032
 JU213                              7060.0690
 JU214                              7103.5607
 JU215                              7090.2890
 JU216                              7168.3572
 JU217                              7071.9731
 JU218                              7140.6720
 JU219                              7110.3100
 JU220                              7045.3381
 JU221                              7115.5708
 JU222                              7136.9624
 JU223                              7098.7942
 JU224                              7050.2245
 JU225                              7071.7800
 JU226                              7126.6837
 JU227                              7071.8160
 JU228                              7087.7763
 JU229                              7088.9808
 JU230                              7103.8523
 JU231                              7107.0509
 JU232                              7093.5865
 JU233                              7080.9888
 JU234                              7070.9488
 JU235                              7159.8568
 JU236                              7056.9594
 JU237                              7111.0363
 JU238                              7113.2606
 JU239                              7153.7235
 JU240                              7089.9146
 JU241                              7102.1961
 JU242                              7077.4743
 JU243                              7097.7141
 JU244                              7096.1478
 JU245                              7066.1109
 JU246                              7102.5961
 JU247                              7067.1992
 JU248                              7079.1960
 JU249                              7015.8656
 JU250                              7051.8320
 JU251                              7124.9109
 JU252                              7118.2696
 JU253                              7092.4005
 JU254                              7100.2748
 JU255                              7037.9896
 JU256                              7038.7011
 JU257                              7110.3216
 JU258                              7084.8175
 JU259                              7084.3747
 JU260                              7064.3819
 JU261                              7058.8963
 JU262                              7095.4158
 JU263                              7129.4382
 JU264                              7121.1904
 JU265                              7149.4913
 JU266                              7096.4069
 JU267                              7079.5585
 JU268                              7077.9311
 JU269                              7157.4340
 JU270                              7079.2749
 JU272                              7102.9662
 JU273                              7092.6783
 JU274                              7109.4036
 JU275                              7051.7744
 JU276                              7092.5774
 JU277                              7127.3902
 JU278                              7069.3335
 JU279                              7168.3572
 JU280                              7072.5825
 JU281                              7085.8717
 JU282                              7075.1178
 JU283                              7118.2573
 JU284                              7135.5092
 JU285                              7070.8631
 JU286                              7115.0734
 JU287                              7130.3255
 JU288                              7053.2806
 JU289                              7079.3779
 JU290                              7072.2269
 JU291                              7082.5716
 JU292                              7066.2260
 JU293                              7131.8785
 JU294                              7141.5104
 JU295                              7107.3947
 JU296                              7116.2699
 JU297                              7112.8528
 JU298                              7134.4083
 JU299                              7092.0878
 JU300                              7088.7509
 JU301                              7098.6636
 JU302                              7075.3664
 JU303                              7015.8656
 JU304                              7076.9616
 JU305                              7098.4725
 JU306                              7114.4649
 JU307                              7115.9006
 JU308                              7091.3502
 JU309                              7113.2162
 JU310                              7106.6195
 JU311                              7096.6018
 JU312                              7123.1413
 JU313                              7110.4450
 JU314                              7116.2610
 JU315                              7091.2350
 JU316                              7107.5511
 JU317                              7118.0168
 JU318                              7089.8653
 JU319                              7071.3799
 JU320                              7149.6100
 JU321                              7127.7155
 JU322                              7172.5955
 JU323                              7167.6098
 JU324                              7109.4324
 JU325                              7134.4083
 JU326                              7112.8528
 JU327                              7067.6300
 JU328                              7065.2139
 JU329                              7128.0521
 JU330                              7158.1277
 JU331                              7045.3065
 JU332                              7150.9360
 JU333                              7050.0013
 JU334                              7127.3787
 JU335                              7085.3370
 JU336                              7075.0762
 JU337                              7120.3267
 JU338                              7082.4648
 JU339                              7053.7321
 JU340                              7110.4297
 JU341                              7061.6754
 JU342                              7083.0137
 JU343                              7086.3542
 JU344                              7129.7679
 JU345                              7106.0980
 JU346                              7031.4280
 JU347                              7126.1938
 JU348                              7063.4560
 JU349                              7045.2273
 JU350                              7025.3634
 JU351                              7077.8785
 JU352                              7111.3490
 JU353                              7058.3883
 JU354                              7106.6192
 JU355                              7076.9522
 JU356                              7043.6933
 JU357                              7048.7085
 JU358                              7111.8511
 JU359                              7090.3598
 JU360                              7136.4661
 JU361                              7115.0451
 JU362                              7048.3475
 JU363                              7093.7663
 JU364                              7123.2417
 JU365                              7079.8659
 JU366                              7094.1332
 JU367                              7080.4709
 JU368                              7049.8864
 JU369                              7092.8533
 JU370                              7077.9079
 JU371                              7090.7205
 JU372                              7116.3249
 JU373                              7125.2277
 JU374                              7057.8342
 JU375                              7104.6223
 JU376                              7085.2869
 JU377                              7090.4211
 JU378                              7147.2947
 JU379                              6998.9630
 JU380                              7105.2751
 JU381                              7096.8728
 JU382                              7020.7410
 JU383                              7078.8753
 JU384                              7067.5084
 JU385                              7121.8763
 JU386                              7058.4866
 JU387                              7047.1858
 JU388                              7090.2567
 JU389                              7129.8193
 JU390                              7088.2452
 JU391                              7077.3739
 JU392                              7123.1375
 JU393                              7087.9631
 JU394                              7065.7524
 JU395                              7128.6273
 JU396                              7145.8297
 JU397                              7035.3450
 JU398                              7128.9995
 JU399                              7154.4638
 JU400                              7129.0469
 JU401                              7108.2303
 JU402                              7116.8315
 JU403                              7104.3216
 JU404                              7072.1538
 JU405                              7092.3532
 JU406                              7092.7514
 JU407                              7096.1544
 JU408                              7147.5996
 JU409                              7128.6817
 JU410                              7025.8120
 JU411                              7121.1351
 JU412                              7104.4493
 JU413                              7110.8377
 JU414                              7096.9720
 JU415                              7104.1494
 JU416                              7072.0560
 JU417                              7158.5026
 JU418                              7102.9682
 JU419                              7061.8040
 JU420                              7097.7039
 JU421                              7102.5961
 JU422                              7127.8271
 JU423                              7063.8615
 JU424                              7080.3261
 JU425                              7173.9463
 JU426                              7050.8125
 JU427                              7043.5642
 JU428                              7079.7398
 JU429                              7100.3653
 JU430                              7058.0244
 JU431                              7095.4310
 JU432                              7097.4735
 JU433                              7072.8223
 JU434                              7103.3703
 JU435                              7043.5642
 JU436                              7099.9265
 JU437                              7134.5995
 JU438                              7063.7507
 JU439                              7096.9421
 JU440                              7081.7375
 JU441                              7096.8417
 JU442                              7013.5261
 JU443                              7094.4620
 JU444                              7086.4161
 JU445                              7051.2209
 JU446                              7080.1576
 JU447                              7120.1944
 JU448                              7077.6764
 JU449                              7075.7555
 JU450                              7089.7249
 JU451                              7091.9894
 JU452                              7111.5366
 JU453                              7071.1447
 JU454                              7054.5043
 JU455                              7076.5463
 JU456                              7084.4512
 JU457                              7125.6440
 JU458                              7037.9167
 JU459                              7028.3948
 JU460                              7048.1157
 JU461                              7124.0400
 JU462                              7076.4943
 JU463                              7093.2184
 JU464                              7067.9918
 JU465                              7069.3419
 JU466                              7059.8519
 JU467                              7042.4898
 JU468                              7105.8969
 JU469                              7088.5348
 JU470                              7096.9662
 JU471                              7083.5587
 JU472                              7037.9313
 JU473                              7029.9079
 JU474                              7057.3913
 JU475                              7084.9863
 JU476                              7069.5697
 JU477                              7100.3382
 JU478                              7122.0630
 JU479                              7096.7348
 JU480                              7103.7428
 JU481                              7079.9312
 JU482                              7087.5269
 JU483                              7077.8982
 JU484                              7087.5269
 JU485                              7098.3055
 JU486                              7140.1390
 JU487                              7080.7359
 JU488                              7070.6962
 JU489                              7121.0816
 JU490                              7114.0191
 JU491                              7128.7590
 JU492                              7079.5115
 JU493                              7107.3237
 JU494                              7100.5485
 JU495                              7107.7873
 JU496                              7120.3775
 JU497                              7112.6504
 JU498                              7097.1120
 JU499                              7084.5934
 JU500                              7062.2229
 JU501                              7109.4907
 JU502                              7073.5217
 JU503                              7108.5167
 JU504                              7028.3436
 JU505                              7084.0898
 JU506                              7056.5123
 JU507                              7109.3957
 JU508                              7093.9384
 JU509                              7110.9765
 JU510                              7086.4545
 JU511                              7092.2305
 JU512                              7105.2294
 JU513                              7039.4583
 JU514                              7091.6891
 JU515                              7095.1171
 JU516                              7114.3439
 JU517                              7092.4232
 JU518                              7074.6250
 JU519                              7073.3186
 JU520                              7096.5864
 JU521                              7105.0992
 JU522                              7059.6597
 JU523                              7120.1604
 JU524                              7117.7347
 JU525                              7059.4954
 JU526                              7089.3597
 JU527                              7098.6753
 JU528                              7086.1503
 JU529                              7098.4823
 JU530                              7058.5222
 JU531                              7133.5407
 JU532                              7068.8861
 JU533                              7107.4383
 JU534                              7117.1603
 JU535                              7059.9644
 JU536                              7146.1640
 JU537                              7164.6116
 JU538                              7097.9734
 JU539                              7099.9559
 JU540                              7098.7321
 JU541                              7116.8347
 JU542                              7116.6382
 JU543                              7081.9211
 JU544                              7111.0243
 JU545                              7077.6449
 JU546                              7107.6828
 JU547                              7108.0646
 JU548                              7133.8675
 JU549                              7112.2655
 JU550                              7114.2072
 JU551                              7101.7465
 JU552                              7119.0067
 JU553                              7117.1767
 JU554                              7138.3188
 JU555                              7122.9793
 JU556                              7125.1606
 JU557                              7173.1514
 JU558                              7149.3850
 JU559                              7109.2135
 JU560                              7106.2834
 JU561                              7123.2354
 JU562                              7096.3514
 JU563                              7106.3864
 JU564                              7100.2165
 JU565                              7132.1914
 JU566                              7123.1682
 JU567                              7096.4259
 JU568                              7091.2737
 JU569                              7051.6839
 JU570                              7056.3873
 JU571                              7052.4504
 JU572                              7102.4879
 JU573                              7078.7115
 JU574                              7086.0111
 JU575                              7120.2768
 JU576                              7070.8631
 JU577                              7075.1902
 JU578                              7041.9246
 JU579                              7076.3215
 JU580                              7058.4885
 JU581                              7158.0451
 JU582                              7079.1761
 JU583                              7094.7952
 JU584                              7073.2432
 JU585                              7130.8004
 JU586                              7091.9730
 JU587                              7087.0579
 JU588                              7079.3935
 JU589                              7035.8608
 JU590                              7071.6062
 JU591                              7145.9170
 JU592                              7073.8872
 JU593                              7033.7002
 JU594                              7097.3653
 JU595                              7098.5187
 JU596                              7106.7500
 JU597                              7093.3339
 JU598                              7123.7039
 JU599                              7078.6602
 JU600                              7047.8317
 JU601                              7148.9827
 JU602                              7136.9374
 JU603                              7118.6072
 JU604                              7114.0007
 JU605                              7123.6458
 JU606                              7108.6347
 JU607                              7109.1279
 JU608                              7100.0743
 JU609                              6991.3947
 JU610                              7105.8063
 JU611                              7099.9663
 JU612                              7078.7448
 JU613                              7080.6121
 JU614                              7110.4450
 JU615                              7129.7952
 JU616                              7130.9085
 JU617                              7124.3491
 JU618                              7090.3689
 JU619                              7094.1552
 JU620                              7093.8672
 JU621                              7092.1467
 JU622                              7130.1793
 JU623                              7146.2778
 JU624                              7078.8716
 JU625                              7120.5791
 JU626                              7104.1515
 JU627                              7092.4859
 JU628                              7097.8404
 JU629                              7121.1794
 JU630                              7119.9940
 JU631                              7122.4762
 JU632                              7086.4349
 JU633                              7085.5040
 JU634                              7168.8704
 JU635                              7094.2118
 JU636                              7127.3902
 JU637                              7132.3889
 JU638                              7098.1136
 JU639                              7119.0856
 JU640                              7054.3538
 JU641                              7106.2385
 JU642                              7050.5562
 JU643                              7124.3051
 JU644                              7126.9585
 JU645                              7091.1150
 JU646                              7040.6452
 JU647                              7114.1201
 JU648                              7074.1052
 JU649                              7110.5554
 JU650                              7089.3049
 JU651                              7109.5409
 JU652                              7100.6245
 JU653                              7076.3215
 JU654                              7104.7965