[TITLE]
Generated synthetic network; 

[JUNCTIONS]
 JU1                                7124.1729
 JU2                                7082.4407
 JU3                                7047.8944
 JU4                                7117.6871
 JU5                                7067.2344
 JU6                                7073.9901
 JU7                                7059.3727
 JU8                                7072.4918
 JU9                                7059.2207
 JU10                               7099.1080
 JU11                               7076.4354
 JU12                               7073.2294
 JU13                               7054.5347
 JU15                               7079.9766
 JU16                               7100.1179
 JU17                               7074.5401
 JU18                               7055.6714
 JU19                               7101.3712
 JU20                               7070.3198
 JU21                               7087.2303
 JU22                               7051.4272
 JU23                               7046.9660
 JU24                               7079.2912
 JU25                               7097.3635
 JU26                               7076.4261
 JU27                               7079.2112
 JU28                               7088.1454
 JU29                               7095.1992
 JU30                               7087.9651
 JU31                               7073.3771
 JU32                               7096.5804
 JU33                               7034.8684
 JU34                               7046.5331
 JU35                               7056.3620
 JU36                               7057.2809
 JU37                               7047.4097
 JU38                               7080.1949
 JU39                               7092.4581
 JU40                               7096.2448
 JU42                               7103.8952
 JU43                               7074.2720
 JU44                               7078.4692
 JU45                               7090.8544
 JU46                               7085.9215
 JU47                               7093.0850
 JU48                               7095.7635
 JU49                               7085.8977
 JU50                               7068.8288
 JU51                               7083.0155
 JU52                               7099.6744
 JU53                               7072.2413
 JU54                               7083.5919
 JU55                               7081.6375
 JU56                               7102.8179
 JU57                               7086.4915
 JU58                               7125.8204
 JU59                               7068.6641
 JU60                               7087.5542
 JU61                               7105.6850
 JU62                               7176.5231
 JU63                               7105.9421
 JU64                               7082.4051
 JU65                               7076.4737
 JU66                               7027.2722
 JU67                               7078.6127
 JU68                               7088.2682
 JU69                               7105.9545
 JU70                               7114.0305
 JU71                               7103.8615
 JU72                               7079.9634
 JU73                               7076.8998
 JU74                               7084.5062
 JU75                               7085.8880
 JU76                               7068.0594
 JU77                               7055.2250
 JU78                               7075.3146
 JU79                               7081.4541
 JU80                               7082.3951
 JU81                               7053.0251
 JU82                               7059.8011
 JU83                               7100.9024
 JU84                               7083.3297
 JU85                               7042.7200
 JU86                               7091.2315
 JU87                               7072.2031
 JU88                               7066.0463
 JU89                               7081.6470
 JU90                               7065.2692
 JU91                               7074.2356
 JU92                               7123.1863
 JU93                               7100.0106
 JU94                               7085.8453
 JU95                               7073.3389
 JU96                               7090.0101
 JU97                               7050.1603
 JU98                               7083.1635
 JU99                               7054.3791
 JU100                              7069.4325
 JU101                              7111.3210
 JU102                              7083.0549
 JU103                              7088.6345
 JU104                              7102.9475
 JU105                              7046.7516
 JU106                              7114.6184
 JU107                              7080.1046
 JU108                              7091.5229
 JU109                              7052.8450
 JU110                              7060.1343
 JU111                              7076.4737
 JU112                              7092.5397
 JU113                              7083.8761
 JU114                              7096.6361
 JU115                              7059.6658
 JU116                              7101.2904
 JU117                              7094.8823
 JU118                              7123.2766
 JU119                              7080.5336
 JU120                              7051.3055
 JU121                              7048.4238
 JU122                              7099.7431
 JU123                              7142.7019
 JU124                              7076.6107
 JU125                              7056.5476
 JU126                              7067.3529
 JU127                              7085.8450
 JU128                              7109.9076
 JU129                              7072.4051
 JU130                              7068.6488
 JU131                              7089.5907
 JU132                              7087.6372
 JU133                              7088.3794
 JU134                              7067.1711
 JU135                              7073.9266
 JU136                              7103.5946
 JU137                              7154.0400
 JU138                              7083.0441
 JU139                              7072.0340
 JU140                              7077.5199
 JU141                              7125.2274
 JU142                              7083.9008
 JU143                              7071.2238
 JU144                              7140.1172
 JU145                              7123.4161
 JU146                              7062.1888
 JU147                              7095.3186
 JU148                              7077.8461
 JU149                              7082.6586
 JU150                              7127.5946
 JU151                              7074.9681
 JU152                              7088.0597
 JU153                              7068.2907
 JU154                              7051.7472
 JU155                              7035.6154
 JU156                              7043.3626
 JU157                              7074.5685
 JU158                              7068.8591
 JU159                              7076.4955
 JU160                              7133.6116
 JU161                              7065.0696
 JU162                              7065.2571
 JU163                              7122.2499
 JU164                              7065.4264
 JU165                              7067.4831
 JU166                              7080.7006
 JU167                              7125.2019
 JU168                              7075.6938
 JU169                              7067.6815
 JU170                              7080.4676
 JU171                              7070.6745
 JU172                              7089.7379
 JU173                              7078.2222
 JU174                              7137.8292
 JU175                              7058.5597
 JU176                              7056.0037
 JU177                              7122.4362
 JU178                              7081.4553
 JU179                              7091.8481
 JU180                              7111.1087
 JU181                              7038.0298
 JU182                              7080.5527
 JU183                              7070.3983
 JU184                              7141.3111
 JU185                              7115.4474
 JU186                              7089.0593
 JU187                              7053.6406
 JU188                              7080.4394
 JU189                              7077.8597
 JU190                              7090.4311
 JU191                              7080.7972
 JU192                              7067.2008
 JU193                              7059.8386
 JU194                              7083.3396
 JU195                              7065.9847
 JU196                              7065.2386
 JU197                              7126.8892
 JU198                              7089.6780
 JU199                              7104.5206
 JU200                              7093.3315
 JU201                              7100.7124
 JU202                              7102.3045
 JU203                              7051.9274
 JU204                              7057.7436
 JU205                              7098.6004
 JU206                              7067.2165
 JU207                              7071.7254
 JU208                              7051.9274
 JU209                              7127.9797
 JU210                              7146.9114
 JU211                              7106.3823
 JU212                              7122.0469
 JU213                              7071.5629
 JU214                              7090.5863
 JU215                              7129.5978
 JU216                              7108.4589
 JU217                              7063.8438
 JU218                              7082.2879
 JU219                              7104.1193
 JU220                              7121.2213
 JU221                              7088.1412
 JU222                              6993.4028
 JU223                              7157.3724
 JU224                              7073.9435
 JU225                              7107.6756
 JU226                              7111.7503
 JU227                              7120.2146
 JU228                              7049.1749
 JU229                              7044.0706
 JU230                              7064.1217
 JU231                              7078.1889
 JU232                              7067.6426
 JU233                              7074.2288
 JU234                              7085.6301
 JU235                              7061.9878
 JU236                              7030.7337
 JU237                              7088.1879
 JU238                              7080.4138
 JU239                              7086.2975
 JU240                              7089.2041
 JU241                              7054.3333
 JU242                              7088.2024
 JU243                              7094.4103
 JU244                              7088.0158
 JU245                              7082.8032
 JU246                              7102.2456
 JU247                              7155.6888
 JU248                              7091.1088
 JU249                              7085.3354
 JU250                              7088.9732
 JU251                              7050.4362
 JU252                              7068.1553
 JU253                              7066.7119
 JU254                              7104.6591
 JU255                              7076.0672
 JU256                              7084.2159
 JU257                              7068.7454
 JU258                              7030.2279
 JU259                              7077.0318
 JU260                              7092.9204
 JU261                              7073.0567
 JU262                              7082.7507
 JU263                              7092.3270
 JU264                              7105.0778
 JU265                              7113.2641
 JU266                              7071.0435
 JU267                              7065.1759
 JU268                              7029.8851
 JU269                              7027.0981
 JU270                              7076.9767
 JU271                              7103.7884
 JU272                              7103.6860
 JU273                              7090.5379
 JU274                              7060.7831
 JU275                              7082.2515
 JU276                              7099.0388
 JU277                              7139.6967
 JU278                              7132.2945
 JU279                              7100.1393
 JU280                              7093.3977
 JU281                              7058.6057
 JU282                              7115.4465
 JU283                              7106.2094
 JU284                              7121.5763
 JU285                              7085.0622
 JU286                              7086.4144
 JU287                              7101.9194
 JU288                              7091.2713
 JU289                              7104.1131
 JU290                              7103.5481
 JU291                              7104.3597
 JU292                              7105.3978
 JU293                              7143.0733
 JU294                              7084.5165
 JU295                              7087.5835
 JU296                              7093.5822
 JU297                              7090.6944
 JU298                              7079.9788
 JU299                              7059.4268
 JU300                              7089.2521
 JU301                              7138.4226
 JU302                              7078.7302
 JU303                              7081.2799
 JU304                              7108.0672
 JU305                              7031.2442
 JU306                              7130.0311
 JU307                              7072.4232
 JU308                              7106.2094
 JU309                              7095.8984
 JU310                              7113.0510
 JU311                              7057.9740
 JU312                              7064.5879
 JU313                              7097.0594
 JU314                              7077.8958
 JU315                              7100.4367
 JU316                              7102.8459
 JU317                              7088.6575
 JU318                              7174.1070
 JU319                              7081.4253
 JU320                              7125.3827
 JU321                              7080.9997
 JU322                              7076.8407
 JU323                              7103.1271
 JU324                              7081.9695
 JU325                              7059.8568
 JU326                              7046.1663
 JU327                              7070.1364
 JU328                              7090.1602
 JU329                              7055.5928
 JU330                              7103.6051
 JU331                              7048.7291
 JU332                              7076.2359
 JU333                              7081.1151
 JU334                              7074.9392
 JU335                              7079.9689
 JU336                              7078.3749
 JU337                              7054.4425
 JU338                              7075.6865
 JU339                              7091.5167
 JU340                              7082.3809
 JU341                              7095.3476
 JU342                              7093.2287
 JU343                              7077.8756
 JU344                              7084.0649
 JU345                              7146.6977
 JU346                              7137.1446
 JU347                              7079.2858
 JU348                              7089.2919
 JU349                              7093.4979
 JU350                              7054.5474
 JU351                              7091.3626
 JU352                              7087.3886
 JU353                              7046.4978
 JU354                              7101.4430
 JU355                              7084.5147
 JU356                              7102.1385
 JU357                              7090.2617
 JU358                              7097.8675
 JU359                              7046.1663
 JU360                              7046.9805
 JU361                              7027.0757
 JU362                              7048.0462
 JU363                              7095.5296
 JU364                              7097.0556
 JU365                              7070.7438
 JU366                              7106.9590
 JU367                              7031.2600
 JU368                              7140.6135
 JU369                              7058.5597
 JU370                              7090.3451
 JU371                              7115.1980
 JU372                              7083.2169
 JU373                              7086.6547
 JU374                              7074.7762
 JU375                              7111.6058
 JU376                              7058.6250
 JU377                              7107.6709
 JU378                              7081.4239
 JU379                              7072.7344
 JU380                              7039.9177
 JU381                              7071.0303
 JU382                              7066.5399
 JU383                              7111.1204
 JU384                              7142.7012
 JU385                              7120.6512
 JU386                              7123.2050
 JU387                              7075.9495
 JU388                              7082.9827
 JU389                              7057.8506
 JU390                              7091.3454
 JU391                              7083.8306
 JU392                              7083.3557
 JU393                              7051.2442
 JU394                              7086.2518
 JU395                              7122.8311
 JU396                              7063.7594
 JU397                              7094.3337
 JU398                              7083.5957
 JU399                              7080.4691
 JU400                              7095.7261
 JU401                              7084.4909
 JU402                              7096.9917
 JU403                              7093.4975
 JU404                              7075.2990
 JU405                              7076.0203
 JU406                              7066.5399
 JU407                              7132.2588
 JU408                              7068.4278
 JU409                              7059.5264
 JU410                              7033.9293
 JU411                              7064.9133
 JU412                              7081.4269
 JU413                              7069.8700
 JU414                              7050.4503
 JU415                              7059.2290
 JU416                              7079.4608
 JU417                              7080.1266
 JU418                              7154.3194
 JU419                              7084.6492
 JU420                              7069.7909
 JU421                              7060.5872
 JU422                              7112.6867
 JU423                              7146.1213
 JU424                              7077.6473
 JU425                              7074.5118
 JU426                              7072.3618
 JU427                              7059.2847
 JU428                              7088.3287
 JU429                              7068.6098
 JU430                              7087.0969
 JU431                              7048.3019
 JU432                              7086.6547
 JU433                              7063.8900
 JU434                              7064.8544
 JU435                              7077.5636
 JU436                              7109.0827
 JU437                              7071.1635
 JU438                              7092.6080
 JU439                              7128.2741
 JU440                              7101.6515
 JU441                              7128.9877
 JU442                              7113.5517
 JU443                              7091.2713
 JU444                              7088.0674
 JU445                              7083.1126
 JU446                              7131.8717
 JU447                              7061.4652
 JU448                              7081.5031
 JU449                              7073.9731
 JU450                              7066.1907
 JU451                              7088.2252
 JU452                              7088.2252
 JU453                              7079.1759
 JU454                              7081.7083
 JU455                              7057.5910
 JU456                              7050.7989
 JU457                              7103.7981
 JU458                              7067.6137
 JU459                              7114.9139
 JU460                              7131.8717
 JU461                              7119.7383
 JU462                              7108.8573
 JU463                              7107.2902
 JU464                              7074.6404
 JU465                              7086.1601
 JU466                              7048.3711
 JU467                              7083.0533
 JU468                              7073.7534
 JU469                              7066.1188
 JU470                              7173.2472
 JU471                              7134.9650
 JU472                              7053.6702
 JU473                              7132.0174
 JU474                              7098.9716
 JU475                              7066.2852
 JU476                              7132.1541
 JU477                              7104.2927
 JU478                              7083.4928
 JU479                              7063.1483
 JU480                              7077.3072
 JU481                              7071.5055
 JU482                              7068.3049
 JU483                              7045.7390
 JU484                              7043.9357
 JU485                              7070.8090
 JU486                              7063.5141
 JU487                              7056.4682
 JU488                              7098.6004
 JU489                              7091.2685
 JU490                              7129.9681
 JU491                              7049.8760
 JU492                              7044.2757
 JU493                              7043.4996
 JU494                              7086.6980
 JU495                              7088.9289
 JU496                              7084.8903
 JU497                              7104.7887
 JU498                              7099.3644
 JU499                              7073.1172
 JU500                              7097.5968
 JU501                              7094.3420
 JU502                              7080.7566
 JU503                              7126.7114
 JU504                              7105.4173
 JU505                              7092.4618
 JU506                              7063.4114
 JU507                              7098.2048
 JU508                              7074.7620
 JU509                              7087.1116
 JU510                              7055.7907
 JU511                              7077.8748
 JU512                              7085.4394
 JU513                              7067.0472
 JU514                              7069.0641
 JU515                              7138.3284
 JU516                              7081.6491
 JU517                              7106.8476
 JU518                              7037.2684
 JU519                              7080.3483
 JU520                              7076.8555
 JU521                              7073.4555
 JU522                              7129.9752
 JU523                              7078.0839
 JU524                              7089.5764
 JU525                              7053.0900
 JU526                              7082.7499
 JU527                              7103.3549
 JU528                              7126.8539
 JU529                              7090.0573
 JU530                              7074.1871
 JU531                              7114.2750
 JU532                              7078.0840
 JU533                              7105.6802
 JU534                              7107.9794
 JU535                              7107.0131
 JU536                              7109.4971
 JU537                              7079.5305
 JU538                              7098.9389
 JU539                              7092.1551
 JU540                              7073.4962
 JU541                              7100.1014
 JU542                              7067.7572
 JU543                              7110.3735
 JU544                              7098.7280
 JU545                              7077.5752
 JU546                              7088.0097
 JU547                              7076.5325
 JU548                              7098.1101
 JU549                              7110.4152
 JU550                              7086.6881
 JU551                              7092.3517
 JU552                              7120.8641
 JU553                              7095.2752
 JU554                              7092.9592
 JU555                              7076.2687
 JU556                              7085.7817
 JU557                              7069.0301
 JU558                              7055.1600
 JU559                              7078.2054
 JU560                              7074.0076
 JU561                              7107.4242
 JU562                              7061.3425
 JU563                              7109.1718
 JU564                              7107.6645
 JU565                              7108.6655
 JU566                              7112.4317
 JU567                              7115.2257
 JU568                              7070.4872
 JU569                              7118.5218
 JU570                              7139.1702
 JU571                              7111.9603
 JU572                              7117.3412
 JU573                              7072.2918
 JU574                              7090.0535
 JU575                              7113.6291
 JU576                              7149.7780
 JU577                              7119.7149
 JU578                              7130.4934
 JU579                              7057.9616
 JU580                              7064.1316
 JU581                              7082.2010
 JU582                              7066.2587
 JU583                              7112.2203
 JU584                              7088.3151
 JU585                              7088.7284
 JU586                              7067.6426
 JU587                              7109.6579
 JU588                              7100.7531
 JU589                              7090.8804
 JU590                              7092.0257
 JU592                              7110.8559
 JU593                              7079.7851
 JU594                              7098.3443
 JU595                              7093.1429
 JU596                              7089.3920
 JU597                              7096.2594
 JU598                              7084.0198
 JU599                              7098.9324
 JU600                              7101.9541
 JU601                              7080.4595
 JU602                              7074.6088
 JU603                              7137.9810
 JU604                              7016.6808
 JU605                              7030.6296
 JU606                              7110.6054
 JU607                              7084.3200
 JU608                              7113.1613
 JU609                              7074.2697
 JU610                              7092.6475
 JU611                              7080.2598
 JU612                              7082.5617
 JU613                              7043.1885
 JU614                              7074.3859
 JU615                              7104.8185
 JU616                              7085.0017
 JU617                              7060.3157
 JU618                              7099.6587
 JU619                              7059.0707
 JU620                              7083.8810
 JU621                              7120.2146
 JU622                              7132.8587
 JU623                              7105.4339
 JU624                              7089.6000
 JU625                              7086.9807
 JU626                              7076.1483
 JU627                              7057.8983
 JU628                              7068.6825
 JU629                              7070.6739
 JU631                              7092.4768
 JU632                              7102.6615
 JU633                              7067.7296
 JU634                              7095.8210
 JU635                              7086.4903
 JU636                              7066.2686
 JU637                              7073.7710
 JU638                              7069.1280
 JU639                              7099.1190
 JU640                              7099.6744
 JU641                              7068.8288
 JU642                              7124.7383
 JU643                              7084.4221
 JU644                              7065.9498
 JU645                              7081.8586
 JU646                              7102.8179
 JU647                              7085.9215
 JU648                              7059.9808
 JU649                              7100.9259
 JU650                              7059.3727
 JU651                              7114.9975
 JU652                              7088.0385
 JU653                              7096.2814
 JU654                              7079.7797
 JU655                              7079.8505