[TITLE]
Generated synthetic network;

[JUNCTIONS]
;ID	Elev	Demand	Pattern
JU1	5.0	10.9333333333	;
JU2	5.0	11.3325	;
JU3	5.0	11.4391948785	;
JU4	5.0	10.979765625	;
JU5	5.0	11.7127314815	;
JU6	5.0	11.5869830247	;
JU7	5.0	10.87625	;
JU8	5.0	10.9445529514	;
JU10	5.0	11.251875	;
JU11	5.0	11.492094184	;
JU12	5.0	11.5184118652	;
JU13	5.0	11.8656278935	;
JU14	5.0	11.37	;
JU15	5.0	11.314921875	;
JU17	5.0	11.5071875	;
JU18	5.0	11.2727777778	;
JU19	5.0	11.4475	;
JU20	5.0	10.7163368056	;
JU21	5.0	11.6518518519	;
JU22	5.0	11.1807617188	;
JU24	5.0	11.2845589193	;
JU25	5.0	11.3325	;
JU26	5.0	11.95875	;
JU27	5.0	11.4593441358	;
JU29	5.0	11.2467333457	;
JU30	5.0	11.1232118056	;
JU31	5.0	11.1658560444	;
JU32	5.0	10.9333333333	;
JU33	5.0	11.6957701582	;
JU34	5.0	12.3061187292	;
JU35	5.0	11.3174703174	;
JU36	5.0	11.3120638021	;
JU37	5.44921875	11.4021875	;
JU38	5.0	11.681875	;
JU39	5.0	12.2421208455	;
JU40	5.0	11.1516666667	;
JU41	5.0	11.0641666667	;
JU43	5.0	11.844453125	;
JU45	5.0	10.8425	;
JU46	5.0	11.70875	;
JU47	5.0	11.8278125	;
JU48	5.0	11.9370216049	;
JU49	5.0	11.3746269772	;
JU50	5.0	11.4011111111	;
JU51	5.0	11.7135185185	;
JU52	5.0	12.2833744346	;
JU53	5.0	12.2109765625	;
JU54	5.0	11.1309722222	;
JU55	5.0	10.8104287833	;
JU56	5.0	11.2208950617	;
JU57	5.0	11.6146875	;
JU58	5.0	12.1642252604	;
JU59	5.0	12.3412923177	;
JU60	5.0	11.17125	;
JU61	5.0	11.3172786458	;
JU62	5.0	12.1233333333	;
JU63	5.0	11.2175219727	;
JU64	5.0	11.2237805176	;
JU65	5.0	10.5916666667	;
JU66	5.0	10.609290455	;
JU67	5.0	11.69234375	;
JU68	5.0	10.90125	;
JU69	5.0	11.7518619792	;
JU70	5.0	10.925625	;
JU71	5.0	12.8380555556	;
JU72	5.0	11.8155555556	;
JU73	5.0	11.3029166667	;
JU74	5.0	10.9475	;
JU75	7.24609375	11.5368359375	;
JU76	5.0	11.7838863269	;
JU77	6.59722222222	11.3847569444	;
JU78	5.0	10.62921875	;
JU79	5.0	11.3956831868	;
JU80	5.0	11.3857278606	;
JU81	5.0	11.2371486102	;
JU82	5.0	11.5401180013	;
JU83	5.0	11.664211697	;
JU84	5.0	11.1897839595	;
JU85	5.0	11.5401180013	;
JU86	5.0	11.5918138179	;
JU87	5.0	11.5918138179	;
JU88	5.0	11.1190573962	;
JU89	5.0	10.9546107552	;
JU90	5.0	10.8222482639	;
JU91	5.0	11.1994824219	;
JU92	5.0	10.9015046296	;
JU93	5.0	10.6441721146	;
JU94	21.8474578857	12.2989703369	;
JU95	5.0	11.2509722222	;
JU96	5.0	11.465	;
JU97	5.0	10.7725	;
JU98	5.0	11.9608203125	;
JU99	5.0	11.432453342	;
JU100	5.0	11.4774864366	;
JU101	5.0	11.1775	;
JU102	5.0	10.6470833333	;
JU103	5.0	11.282345679	;
JU104	5.0	11.6773958333	;
JU105	5.0	10.95625	;
JU106	5.0	11.1377667161	;
JU107	5.0	11.4291358025	;
JU108	5.0	11.1232118056	;
JU109	5.0	11.6350925926	;
JU110	5.0	12.1476929012	;
JU111	5.0	12.120625	;
JU112	5.0	10.734296875	;
JU113	5.0	11.4375520833	;
JU114	5.0	11.3629105632	;
JU115	5.0	10.58	;
JU116	5.0	10.700447139	;
JU117	5.0	12.0621158854	;
JU118	5.0	11.8450680647	;
JU119	5.0	11.1589193274	;
JU120	5.0	11.2993582769	;
JU121	5.0	11.2914409722	;
JU122	5.0	10.6098611111	;
JU123	5.0	11.2348003472	;
JU124	5.0	11.125787037	;
JU125	5.0	11.2434722222	;
JU126	5.0	11.000546875	;
JU127	5.0	11.063166956	;
JU128	5.0	11.5262631113	;
JU129	5.0	11.000546875	;
JU130	5.0	10.58	;
JU131	5.0	10.69203125	;
JU132	5.0	11.4809375	;
JU133	31.1545138889	11.47546875	;
JU134	5.0	11.3866666667	;
JU135	5.0	11.3184645062	;
JU136	5.0	11.0438818359	;
JU137	5.0	11.614836697	;
JU138	5.0	11.7505314429	;
JU139	5.0	11.2715740741	;
JU140	5.0	11.375873074	;
JU141	5.0	11.055	;
JU142	5.0	10.8654427083	;
JU143	5.0	11.7004294946	;
JU144	5.0	10.9480275849	;
JU145	5.0	12.7839275897	;
JU146	5.0	12.6642418981	;
JU147	5.0	11.6104333044	;
JU148	5.0	12.2651089892	;
JU149	5.0	11.2259722222	;
JU150	5.0	11.6664583333	;
JU151	5.0	11.436796875	;
JU152	5.0	10.9263888889	;
JU153	5.0	10.9263888889	;
JU154	5.0	11.9796180556	;
JU155	5.0	11.6023697917	;
JU156	5.99826388889	10.7771875	;
JU157	5.0	12.1481944444	;
JU158	5.0	11.3675	;
JU159	5.0	11.3722800926	;
JU160	5.0	10.95625	;
JU161	5.0	11.1218055556	;
JU162	5.0	11.2200097656	;
JU163	5.0	11.8248372396	;
JU164	5.0	11.3270659722	;
JU165	5.0	11.4415104167	;
JU166	5.0	11.2369444444	;
JU167	5.0	11.4415104167	;
JU168	5.0	11.383359375	;
JU169	5.0	11.3138682726	;
JU170	5.0	12.24625	;
JU171	5.0	12.5780555556	;
JU172	5.0	11.3702623457	;
JU173	5.0	11.017962963	;
JU174	5.0	10.7840451389	;
JU175	5.0	10.7728000217	;
JU176	5.0	10.8636805556	;
JU177	5.0	11.6738035301	;
JU178	5.0	12.4305555556	;
JU179	5.0	11.7807407407	;
JU180	5.0	11.1748829733	;
JU181	5.0	10.9082948335	;
JU182	5.0	11.2344135802	;
JU183	5.0	11.2480555556	;
JU184	5.5615234375	10.7480523201	;
JU185	5.0	11.0943576389	;
JU186	5.0	12.1079036458	;
JU187	5.0	11.2497070313	;
JU188	5.0	12.1945052083	;
JU189	5.0	11.4296846065	;
JU190	5.0	11.4962384259	;
JU191	5.0	11.01	;
JU192	5.0	11.5475	;
JU193	5.0	10.910462963	;
JU194	5.0	11.3455486156	;
JU195	5.0	10.7742057292	;
JU196	5.0	12.302677228	;
JU197	5.0	11.49375	;
JU198	5.0	11.3114648438	;
JU199	5.0	12.3049690755	;
JU200	5.0	11.5378226273	;
JU201	5.0	11.3114648438	;
JU202	5.0	10.6091869609	;
JU203	5.0	11.2166290509	;
JU204	5.04991319444	10.8633569637	;
JU205	5.0	10.7404282407	;
JU206	5.0	10.7161075746	;
JU207	5.0	12.024691358	;
JU208	5.0	11.9504340278	;
JU209	5.0	11.0903352865	;
JU210	5.0	11.3805215642	;
JU211	5.0	11.9714814815	;
JU212	5.0	11.7400226659	;
JU213	17.4782986111	11.8407335069	;
JU214	5.0	11.2024074074	;
JU215	5.0	11.1815277778	;
JU216	5.0	11.5582098765	;
JU217	5.0	12.0558024691	;
JU218	5.0	11.6847436523	;
JU219	5.0	11.1577700617	;
JU220	5.0	11.2560069444	;
JU221	5.0	12.6608333333	;
JU222	5.0	11.2872453704	;
JU223	5.0	11.3717602238	;
JU224	5.0	11.9001003086	;
JU225	5.0	11.35875	;
JU226	5.0	12.853125	;
JU227	5.0	11.6773958333	;
JU228	5.0	11.4092932581	;
JU229	5.0	11.7153515625	;
JU230	5.0	10.6876204427	;
JU231	5.0	10.7742057292	;
JU232	5.0	10.8740386285	;
JU233	5.0	11.0725925926	;
JU234	5.0	10.58	;
JU235	5.0	11.4075	;
JU236	5.0	11.6944894145	;
JU237	5.0	11.9097800926	;
JU238	5.0	10.7233333333	;
JU239	5.0	11.3146766493	;
JU240	5.0	11.1609777778	;
JU241	5.0	12.0930208333	;
JU242	5.0	11.4065930628	;
JU243	5.0	11.4593089313	;
JU244	5.0	11.055617927	;
JU245	5.0	10.6790393519	;
JU246	5.0	10.7217158565	;
JU247	5.0	10.6875	;
JU248	5.0	10.7316165123	;
JU249	5.0	12.1412962963	;
JU250	5.0	11.5789178241	;
JU251	5.0	11.4610161675	;
JU252	5.0	10.6471354167	;
JU253	5.0	11.08125	;
JU254	5.14973958333	10.7980873843	;
JU255	5.0	10.6471354167	;
JU256	5.0	11.3550063899	;
JU257	5.0	11.9138136574	;
JU258	5.0	10.998359375	;
JU259	5.0	10.7559375	;
JU260	8.06503986626	11.5941332104	;
JU261	5.0	10.7848459201	;
JU262	5.0	11.175	;
JU263	5.0	11.1622916667	;
JU264	5.0	10.8171358236	;
JU265	5.0	10.58	;
JU266	5.0	11.3315407986	;
JU267	5.0	11.8657746592	;
JU268	5.0	11.8402353395	;
JU269	5.0	11.135234375	;
JU270	5.0	11.4336130401	;
JU271	5.0	11.5681785301	;
JU272	5.0	10.793515625	;
JU273	5.0	11.4337663966	;
JU274	5.0	11.2191364791	;
JU275	5.0	11.4428926981	;
JU276	5.0	11.2711452453	;
JU277	5.0	11.5198638358	;
JU278	5.224609375	11.580234375	;
JU279	5.0	12.0276222488	;
JU280	5.0	11.0626716821	;
JU281	5.0	11.1568171296	;
JU282	5.0	11.4336130401	;
JU283	5.0	11.1941711677	;
JU284	5.0	11.0066138689	;
JU285	5.0	11.1398958333	;
JU286	5.0	10.9809606481	;
JU287	5.0	11.3191247106	;
JU288	5.0	10.9917476852	;
JU289	5.0	11.1637037037	;
JU290	5.0	10.74125	;
JU291	5.0	10.971469836	;
JU292	5.0	11.3344388021	;
JU293	5.0	11.4941753472	;
JU294	5.0	11.0822087191	;
JU295	5.0	11.6558248939	;
JU296	5.0	11.3991666667	;
JU297	5.0	12.5104662584	;
JU298	5.0	10.6833298973	;
JU299	5.0	11.5770182292	;
JU300	5.0	13.14875	;
JU301	5.0	10.7459250217	;
JU302	5.0	10.8552199074	;
JU303	5.0	10.7434375	;
JU304	5.0	11.9708333333	;
JU305	5.0	10.5816796875	;
JU306	15.2932098765	11.4302912809	;
JU307	5.0	11.7111265432	;
JU308	5.0	10.939453125	;
JU309	5.0	11.2146535916	;
JU310	5.0	11.5498632059	;
JU311	5.0	11.5472222222	;
JU312	5.0	11.9468209877	;
JU313	5.0	11.6938425926	;
JU314	5.0	11.8178549383	;
JU315	11.7438271605	11.3368014564	;
JU316	5.0	10.763046875	;
JU317	5.0	11.8008333333	;
JU318	5.0	11.9645507812	;
JU319	5.44921875	12.3965234375	;
JU320	5.0	10.9517708333	;
JU321	5.0	10.58	;
JU322	5.0	11.2112673611	;
JU323	5.0	10.9136879702	;
JU324	5.0	11.231640625	;
JU325	5.0	10.9978125	;
JU326	5.0	12.3548688272	;
JU327	5.0	10.9517708333	;
JU328	5.0	10.8496026837	;
JU329	5.0	11.8657518928	;
JU330	5.0	11.9127099308	;
JU331	5.0	10.8626851852	;
JU332	5.0	10.8626851852	;
JU333	5.0	11.01	;
JU334	5.0	11.1294444444	;
JU335	5.0	11.1839583333	;
JU336	5.0	11.1283179012	;
JU337	5.19965277778	10.8663541667	;
JU338	5.0	10.9568261719	;
JU339	5.0	11.0259231396	;
JU340	5.0	10.7016087963	;
JU341	5.0	10.8643568619	;
JU342	5.0	11.7522769579	;
JU343	5.0	10.6875	;
JU344	5.0	11.6380584491	;
JU345	5.0	11.4797222222	;
JU346	17.9256687243	11.5450932356	;
JU347	5.0	11.636880787	;
JU348	5.0	12.2250333333	;
JU349	5.0	11.639790446	;
JU350	5.0	11.9810340712	;
JU351	5.0	11.8586429398	;
JU352	5.0	10.8913953993	;
JU353	5.0	12.3656828704	;
JU354	5.0	10.8403125	;
JU355	5.09982638889	11.1396643519	;
JU356	5.0	11.2541763051	;
JU357	5.0	11.1442132443	;
JU358	5.0	12.1497395833	;
JU359	5.0	10.58	;
JU360	5.0	11.5461458333	;
JU361	5.0	11.2826423136	;
JU362	5.0	11.8609739101	;
JU363	5.0	11.0731423611	;
JU364	5.0	12.0143983893	;
JU365	5.0	11.0877604167	;
JU366	5.0	12.2736419753	;
JU367	5.0	11.0897540509	;
JU368	5.0	10.9999298322	;
JU369	5.0	10.9147005208	;
JU370	5.0	11.4062962963	;
JU371	5.0	10.8773363275	;
JU372	5.0	10.58	;
JU373	5.0	12.8476667541	;
JU374	5.0	10.6062962963	;
JU375	5.0	10.9510199653	;
JU376	5.0	10.6612934028	;
JU377	5.0	11.6029079861	;
JU378	5.0	12.232848669	;
JU379	5.0	10.9753732045	;
JU380	5.0	11.56765625	;
JU381	5.0	12.0357291667	;
JU382	5.0	11.3317476852	;
JU383	5.0	11.4753125	;
JU384	5.0	11.3671049142	;
JU385	5.0	10.8812239583	;
JU386	5.0	10.8538715278	;
JU387	5.0	12.6352864583	;
JU388	5.0	11.3699479167	;
JU389	5.0	11.1126986883	;
JU390	5.0	11.457097487	;
JU391	5.0	11.2427854938	;
JU392	5.0	12.0509375	;
JU393	5.0	11.3278974067	;
JU394	5.0	11.8816435185	;
JU395	6.59722222222	11.1563194444	;
JU396	5.0	12.1050916281	;
JU397	5.0	11.7279108796	;
JU398	5.0	11.7072886124	;
JU399	5.0	11.7967660979	;
JU400	5.0	11.8107165075	;
JU401	5.0	11.6079256687	;
JU402	5.0	12.0448958333	;
JU403	5.0	11.8136326517	;
JU404	5.0	11.7424373607	;
JU405	5.0	11.3051388889	;
JU406	5.0	11.0942361111	;
JU407	5.0	11.4651388889	;
JU408	5.0	12.7860763889	;
JU409	5.0	11.374765625	;
JU410	5.0	10.587962963	;
JU411	5.0	11.2350231481	;
JU412	5.0	10.9352734375	;
JU413	5.0	11.5597441895	;
JU414	5.0	11.5848958333	;
JU415	10.6790123457	11.9319241898	;
JU416	5.0	11.8250130208	;
JU417	5.79861111111	11.1637847222	;
JU418	5.0	11.2166290509	;
JU419	5.0	11.9341358025	;
JU420	5.0	12.48900113	;
JU421	5.0	11.8929939477	;
JU422	5.0	11.9773765432	;
JU423	5.0	11.5542893197	;
JU424	5.0	11.2095023148	;
JU425	5.0	11.9787345679	;
JU426	5.0	10.8910532407	;
JU427	5.0	11.557952407	;
JU428	5.0	11.78875	;
JU429	5.0	11.98	;
JU430	5.0	11.2255285494	;
JU431	5.0	11.7230028292	;
JU432	5.0	12.0153858025	;
JU433	5.0	12.0229248114	;
JU434	5.0	11.5128889974	;
JU435	5.0	11.1955195693	;
JU436	5.0	11.7779835391	;
JU437	5.0	11.9359760802	;
JU438	5.0	11.857716607	;
JU439	5.0	11.647256741	;
JU440	5.0	10.7701157407	;
JU441	5.0	11.1032367622	;
JU442	5.0	11.5525260417	;
JU443	5.0	10.8879166667	;
JU444	5.0	11.695	;
JU445	5.0	11.5286226852	;
JU446	5.0	11.2879805164	;
JU447	5.0	11.3822685185	;
JU448	5.0	12.7479166667	;
JU449	5.0	11.6301774089	;
JU450	5.0	11.3247222222	;
JU451	5.0	11.3247222222	;
JU452	5.0	12.0285763889	;
JU453	5.0	11.9864115548	;
JU454	5.0	11.6407400174	;
JU455	5.0	11.7426736111	;
JU456	5.0	11.3161935764	;
JU457	5.0	11.0548546007	;
JU458	5.0	11.2285416667	;
JU459	5.0	11.4041666667	;
JU460	5.0	10.9314279514	;
JU461	5.0	11.597995515	;
JU462	5.0	10.7722477515	;
JU463	5.0	11.7031014902	;
JU464	5.0	11.5384519676	;
JU465	5.0	11.8157364005	;
JU466	5.0	11.2778735239	;
JU467	5.0	11.1244675926	;
JU468	5.0	11.3051388889	;
JU469	5.0	11.2034253298	;
JU470	5.0	11.8003222656	;
JU471	5.0	11.1801801215	;
JU472	5.0	11.4016380555	;
JU473	5.0	11.9513941937	;
JU474	5.0	10.9970498167	;
JU475	5.0	11.2148472222	;
JU476	5.0	11.1773715278	;
JU477	5.0	11.1599385127	;
JU478	5.0	11.4249312187	;
JU479	5.0	11.0222747878	;
JU480	5.0	11.0280455131	;
JU481	5.0	11.0070968364	;
JU482	5.0	10.9850260417	;
JU483	5.0	10.889258355	;
JU484	5.0	11.0470650613	;
JU485	5.0	11.7255208333	;
JU486	5.0	11.0824798977	;
JU487	5.0	10.9860926649	;
JU488	5.0	11.8544791667	;
JU489	5.0	11.9733333333	;
JU490	5.0	10.738078614	;
JU491	5.0	11.2711452453	;
JU492	5.0	10.9129166667	;
JU493	5.0	10.878828125	;
JU494	5.0	11.0395695712	;
JU495	5.0	10.7798958333	;
JU496	5.0	10.90359375	;
JU497	5.0	11.1577777778	;
JU498	5.0	11.8671744792	;
JU499	5.0	10.853048405	;
JU500	5.0	11.8848350694	;
JU501	5.0	12.4480555556	;
JU502	5.0	11.3205555556	;
JU503	5.0	11.2151851852	;
JU504	5.0	12.0133774143	;
JU505	5.0	11.2930353009	;
JU506	5.0	11.5169273646	;
JU507	5.0	10.8096875	;
JU508	5.0	12.3300520833	;
JU509	5.0	12.2109765625	;
JU510	5.0	12.1081481481	;
JU511	5.0	11.5463990162	;
JU512	5.0	11.1487165638	;
JU513	5.33275462963	11.7024768519	;
JU514	5.0	12.1497395833	;
JU515	5.2662037037	11.4182720269	;
JU516	5.0887345679	11.4719153284	;
JU517	5.0	11.4290470679	;
JU518	6.50848765432	11.3768613161	;
JU519	6.19791666667	11.3971485882	;
JU520	5.0	11.882337963	;
JU521	9.28883744856	11.3772658058	;
JU522	5.0887345679	11.4743851072	;
JU523	5.28838734568	11.3611659289	;
JU524	5.0	11.70875	;
JU525	6.34395897634	11.3123704753	;
JU526	5.0	12.104375	;
JU527	5.0	11.5698958333	;
JU528	5.0	10.755	;
JU529	5.0	12.1949478009	;
JU530	5.0	11.1447894965	;
JU531	5.00623914931	10.602721422	;
JU532	5.0	10.65875	;
JU533	5.0	12.0039570071	;
JU534	12.851969401	11.1578198242	;
JU535	5.0	11.8033333333	;
JU536	5.0	11.8742054612	;
JU537	5.0	10.7375	;
JU538	5.0	11.585163092	;
JU539	5.0	11.8195421007	;
JU540	5.0	10.689537037	;
JU541	5.0	12.1148177083	;
JU542	5.0	10.8543359375	;
JU543	5.0	10.6545703125	;
JU544	5.0	11.2093229167	;
JU545	5.0	10.58	;
JU546	5.0	11.2838888889	;
JU547	5.0	11.5442216435	;
JU548	5.03509521484	10.9497682699	;
JU549	5.0	10.8797846137	;
JU550	5.0	11.4214398872	;
JU551	5.0	11.3926075424	;
JU552	6.796875	10.9552430556	;
JU553	5.0	11.4871141975	;
JU554	11.1486816406	11.0366227214	;
JU555	5.0	11.3035766602	;
JU556	5.0	11.2568929941	;
JU557	5.0	12.0809396701	;
JU558	5.0	12.0494401042	;
JU559	5.0	11.7758487654	;
JU560	5.0	11.2371486102	;
JU561	5.0	10.7729176726	;
JU562	5.0	12.60828125	;
JU563	5.0	10.9185818598	;
JU564	5.0	10.58	;
JU565	5.0	11.810368204	;
JU566	5.0	10.8959215856	;
JU567	5.0	12.230234375	;
JU568	5.0	12.54875	;
JU569	5.0	11.0503812211	;
JU570	5.0	11.0099490017	;
JU571	5.0	11.1447453704	;
JU572	5.0	11.9205273438	;
JU573	5.0	11.195	;
JU574	5.0	11.8008333333	;
JU575	5.0	11.1567361111	;
JU576	5.0	10.6695833333	;
JU577	5.0	10.9421383497	;
JU578	5.0	12.8008281893	;
JU579	5.0	11.3376692708	;
JU580	6.97937011719	11.7069763184	;
JU581	5.0	11.7009521484	;
JU582	5.0	11.3655073302	;
JU583	5.0	10.9336934558	;
JU584	50.5208333333	11.21875	;
JU585	5.0	11.4387239583	;
JU586	5.0	10.9623003472	;
JU587	5.0	11.5000954861	;
JU588	5.0	11.5257566872	;
JU589	5.0	12.1827213542	;
JU590	5.0	11.8227555339	;
JU591	13.4205118815	11.0895184326	;
JU592	5.0	11.5855220835	;
JU593	5.0	11.6603781936	;
JU594	5.0	10.6742100694	;
JU595	5.0	11.7443536603	;
JU596	5.0	11.4796662809	;
JU597	5.0	13.034375	;
JU598	5.0	13.0915625	;
JU599	5.0	12.2784704905	;
JU600	5.0	12.0617692776	;
JU601	5.0	12.1994789637	;
JU602	5.0	12.4946790003	;
JU603	5.0	11.3529361979	;
JU604	5.0	11.3184092882	;
JU605	5.0	12.3336609907	;
JU606	5.0	12.2381032876	;
JU607	5.0	11.4889453125	;
JU608	5.0	11.3668662764	;
JU609	5.0	10.7039236111	;
JU610	5.0	11.8203125	;
JU611	5.0	10.7984024688	;
JU612	5.0	10.7375	;
JU613	5.0	10.9978125	;
JU614	5.0	11.4564771864	;
JU615	5.0	10.9179890046	;
JU616	5.0	12.3563816149	;
JU617	5.0	12.7343402778	;
JU618	5.0	11.1744778807	;
JU619	5.0	11.2639847668	;
JU620	5.3785083912	10.9099061415	;
JU621	5.15574765303	10.9499069854	;
JU622	5.0	12.8340364583	;
JU623	5.19056364669	10.9653257117	;
JU624	5.0	11.3997395833	;
JU625	5.0	10.7631770833	;
JU626	5.0	11.3420486111	;
JU627	5.0	11.4996365017	;
JU628	5.0	11.6513025656	;
JU629	5.0	10.8495507813	;
JU630	5.12478298611	10.9133781829	;
JU631	5.0	10.9352951389	;
JU632	5.0	10.65	;
JU633	5.0	11.2225	;
JU634	5.0	10.998359375	;
JU635	5.0	11.2496354167	;
JU636	5.0	11.2914409722	;
JU637	5.0	11.0936007427	;
JU638	5.0	11.0103680797	;
JU639	5.0	10.9938773148	;
JU640	5.0	10.9578476241	;
JU641	5.0	10.8442708333	;
JU642	5.0	10.8935416667	;
JU643	5.0	10.9903414352	;
JU644	5.0	11.0272960974	;
JU645	5.0	11.2233410494	;
JU646	5.0	11.1615162037	;
JU647	5.0	11.2633333333	;
JU648	5.0	11.1319401042	;
JU649	5.0	13.14875	;
JU650	5.0	11.5405683127	;
JU651	5.0	11.4061230469	;
JU652	5.0	11.470265405	;
JU653	5.0	10.8196744792	;
JU654	5.0	11.4416741955	;
JU655	5.0	11.1924286265	;
JU656	5.0	11.4297470155	;
JU657	5.0	11.7415494792	;
JU658	5.0	11.2892706341	;
JU659	5.28453601895	10.9376159266	;
JU660	5.0	11.769436849	;
JU661	5.0	12.1601234568	;
JU662	5.0	10.6009179687	;
JU663	5.0	11.648015408	;
JU664	5.0	11.1512758005	;
JU665	5.0	11.1105054012	;
JU666	5.0	11.4191775174	;
JU667	5.0	11.6726046414	;
JU668	5.0	11.2701359954	;
JU669	5.0	11.5576041667	;
JU670	5.0	11.1353153935	;
JU671	5.0	11.1298559671	;
JU672	6.90490471483	11.601383034	;
JU673	5.0	11.3354757427	;
JU674	36.669921875	11.2937890625	;
JU675	5.0	11.5837727865	;
JU676	5.0	10.5954036458	;
JU677	5.0	11.8320515046	;
JU678	5.0	11.6288888889	;
JU679	5.0	11.4267059986	;
JU680	7.00900607639	11.0722985388	;
JU681	5.0	11.9078645833	;
JU682	5.0	12.085	;
JU683	5.0	11.5235465495	;
JU684	5.0	12.03578125	;
JU685	5.0	11.7820030382	;
JU686	5.0	11.9084722222	;
JU687	5.0	11.7326545621	;
JU688	5.0	11.3828027344	;
JU689	5.0	11.1779890046	;
JU690	12.7864583333	11.92625	;
JU691	5.0	11.2344135802	;
JU692	5.0	10.6715393519	;
JU693	5.0	11.0799442696	;
JU694	5.0	11.9650917562	;
JU695	5.0	11.8296875	;
JU696	18.1126121238	11.6469558377	;
JU697	5.0	11.7852833237	;
JU698	5.0	10.58	;
JU699	5.0	10.9148177083	;
JU700	5.0	12.1467790718	;
JU701	5.0	11.2604166667	;
JU702	5.0	11.7561315503	;
JU703	5.0	11.2019792006	;
JU704	5.0	10.7378125	;
JU705	5.0	12.7181430041	;
JU706	5.0	11.0810153035	;
JU707	5.0	11.705	;
JU708	5.0	11.88203125	;
JU709	5.0	11.3683333333	;
JU710	5.0	12.0137216274	;
JU711	5.0	11.1705973508	;
JU712	5.0	11.1577700617	;
JU713	5.0	10.7098601466	;
JU714	5.0	11.6246815773	;
JU715	5.0	11.5737803819	;
JU716	5.0	11.4821354167	;
JU717	5.0	10.6266666667	;
JU718	5.0	11.5385416667	;
JU719	17.7954553675	11.7438446723	;
JU720	8.57347276476	11.1546828885	;
JU721	5.0	12.0019278067	;
JU722	5.99826388889	10.7355208333	;
JU723	5.0	12.4552625868	;
JU724	5.0	11.6191259766	;
JU725	5.0	11.106077474	;
JU726	5.0	11.3822685185	;
JU727	5.0	10.8386552373	;
JU728	5.0	10.8755729167	;
JU729	5.0	11.7812065972	;
JU730	5.0	11.1892779541	;
JU731	5.0	11.1516666667	;
JU732	5.0	10.7743981481	;
JU733	5.0	10.7442824074	;
JU734	5.0	11.036875	;
JU735	5.0	11.036875	;
JU736	5.0	11.2457291667	;
JU737	5.0	10.6868467882	;
JU738	5.0	10.8101967593	;
JU739	5.0	11.3671049142	;
JU740	5.0	11.442741448	;
JU741	5.0	11.5387860082	;
JU742	5.0	12.5831423611	;
JU743	5.0	11.6852539063	;
JU744	5.0	11.170625	;
JU745	5.0	11.314375	;
JU746	5.0	10.929375	;
JU747	5.0	10.660625	;
JU748	5.0	11.0759375	;
JU749	5.0	10.6203125	;
JU750	5.0	10.5850390625	;
JU751	5.0	12.0596846065	;
JU752	5.0	11.5728125	;
JU753	5.0	10.5816796875	;
JU754	5.0	11.1440074497	;
JU755	5.0	11.0601986035	;
JU756	5.0	11.3512962963	;
JU757	5.0	12.0853088563	;
JU758	5.0	11.6067336998	;
JU759	5.0	11.7117799208	;
JU760	5.00935872396	10.839160258	;
JU761	5.0	11.93890625	;
JU762	5.0	11.0197916667	;
JU763	5.0	10.9875868056	;
JU764	5.0	11.4330729167	;
JU765	5.0	11.2404282407	;
JU766	5.0	11.09828125	;
JU767	5.0	10.8520703125	;
JU768	5.0	11.1246875	;
JU769	5.0	11.2497070313	;
JU770	5.0	11.4161111111	;
JU771	5.0	11.6212167245	;
JU772	5.0	11.8195421007	;
JU773	7.59080674913	10.7431905111	;
JU774	5.0	11.0576851852	;
JU775	5.0	11.3634693287	;
JU776	5.0	10.6952734375	;
JU777	5.0	11.2428935185	;
JU778	5.0	11.4849199808	;
JU779	5.0	10.9179890046	;
JU780	5.0	11.8716940986	;
JU781	5.0	11.5670914714	;
JU782	8.22642008464	11.289442749	;
JU783	5.0	12.58875	;
JU784	5.0	11.003599537	;
JU785	5.0	10.7414583333	;
JU786	5.0	12.5964621914	;
JU787	5.0	10.977421875	;
JU788	5.0	11.4702591307	;
JU789	5.0	11.9192614646	;
JU790	5.0	12.0225434028	;
JU791	5.0	11.5813946759	;
JU792	5.0	11.4877777778	;
JU793	5.0	11.2103317901	;
JU794	5.0	10.69203125	;
JU795	5.28076171875	10.7989093244	;
JU796	5.0	10.9142578125	;
JU797	5.0	12.035	;
JU798	5.0	12.1655729167	;
JU799	5.0	10.9456423611	;
JU800	5.0	12.6946875	;
JU801	5.0	12.5653125	;
JU802	5.0	12.4208138021	;
JU803	5.0	12.79984375	;
JU804	5.0	12.0017505486	;
JU805	5.0	12.1655729167	;
JU806	5.0	11.4639737654	;
JU807	5.0	11.9518865741	;
JU808	5.0	11.4149963831	;
JU809	5.0	11.1272265625	;
JU810	5.0	11.3482222041	;
JU811	5.0	12.0127854938	;
JU812	5.0	11.0256481481	;
JU813	5.0	11.4374635693	;
JU814	5.0	11.5987890625	;
JU815	5.0	11.5914381525	;
JU816	5.0	11.63875	;
JU817	5.0	10.94875	;
JU818	5.0	11.8104600694	;
JU819	5.0	11.8104600694	;
JU820	5.0	11.0277240668	;
JU821	35.2473958333	11.55390625	;
JU822	35.9646669239	11.5779378858	;
JU823	5.0	12.1321701389	;
JU824	5.0	11.5545324707	;
JU825	5.0	11.5323649691	;
JU826	5.0	12.1769445801	;
JU827	5.0	12.075546875	;
JU828	5.0	11.7977457682	;
JU829	5.0	11.648046875	;
JU830	5.0	11.2509722222	;
JU831	5.0	11.6391601562	;
JU832	5.0	11.4753125	;
JU833	5.0	11.7297867839	;
JU834	5.0	11.411499566	;
JU835	5.0	12.2179752604	;
JU836	5.0	12.1348916667	;
JU837	5.0	12.3366812414	;
JU838	5.0	11.6629628612	;
JU839	8.74348958333	11.8369610596	;
JU840	5.0	10.6572702332	;
JU841	5.0	12.2499479167	;
JU842	5.0	12.5833984375	;
JU843	5.0	12.2205575222	;
JU844	5.0	12.7437304687	;
JU845	5.0	10.7792055483	;
JU846	5.0	11.06375	;
JU847	5.0	11.6146875	;
JU848	5.0	11.3271585648	;
JU849	5.0	11.0763671875	;
JU851	5.0	11.7390669293	;
JU852	5.0	12.2910416667	;
JU853	15.4841105143	12.1196525065	;
JU854	5.0	10.795	;
JU855	5.0	12.9303038194	;
JU856	5.0	10.9465817901	;
JU857	5.0	11.599172092	;
JU858	5.0	11.7056944444	;
JU859	5.0	11.7443335112	;
JU860	5.0	11.6795494965	;
JU861	5.0	12.7851996528	;
JU862	5.0	12.0558024691	;
JU863	5.0	12.1471777344	;
JU864	5.0	11.0085058594	;
JU865	5.0	11.3780015859	;
JU866	13.5101996528	11.8123708767	;
JU867	16.7212818287	11.8192277922	;
JU868	5.0	11.2571419271	;
JU869	5.0	11.3271042326	;
JU870	5.0	13.0653125	;
JU871	5.0	12.8230403646	;
JU872	5.0	11.8990561704	;
JU873	5.0	10.8171358236	;
JU874	8.14935503673	11.6196907835	;
JU875	7.28459016776	11.5968366284	;
JU876	5.0	11.6974228395	;
JU877	5.0	10.85125	;
JU878	5.0	10.98232663	;
JU879	5.0	10.9008434606	;
JU880	5.0	10.9144015842	;
JU881	5.0	11.8463891602	;
JU882	5.0	10.9232291667	;
JU883	5.0	10.5909895833	;
JU884	5.0	10.5909895833	;
JU885	5.0	11.4910416667	;
JU886	5.0	11.2639847668	;
JU887	5.0	12.0327228009	;
JU888	5.0	11.0247749486	;
JU889	5.0	10.58	;
JU890	5.0	11.2147569365	;
JU891	5.0	12.0701470872	;
JU892	25.7001109182	11.6144278067	;
JU893	5.0	11.3965928819	;
JU894	5.0	11.0799442696	;
JU895	5.0	10.7719011488	;
JU896	5.0	11.7799363426	;
JU897	5.0	12.1482426698	;
JU898	5.0	10.8271498663	;
JU899	5.0	10.9786149691	;
JU900	5.0	11.7602756076	;
JU901	5.0	12.797960612	;
JU902	5.0	11.6557226562	;
JU903	5.0	11.2683830516	;
JU904	5.0	11.6461241319	;
JU905	5.0	13.16	;
JU906	5.0	11.680665464	;
JU907	5.0	12.4576649306	;
JU908	5.0	11.4557408312	;
JU909	5.0	11.7838863269	;
JU910	5.0	12.6235069444	;
JU911	5.0	11.141932147	;
JU912	5.0	12.0276222488	;
JU913	5.0	10.8043229167	;
JU914	5.0	12.1485101997	;
JU915	5.0	11.5974435764	;
JU916	5.0	11.4153125	;
JU917	5.0	10.9581944444	;
JU918	5.0	12.0189073351	;
JU919	5.0	11.4010917798	;
JU920	5.0	11.3052784432	;
JU921	5.0	11.5771610966	;
JU922	5.0	11.4809375	;
JU923	5.0	11.4769119526	;
JU924	5.0	10.689537037	;
JU925	5.0	11.3566233412	;
JU926	5.0	10.817450456	;
JU927	25.2803548177	11.0844189453	;
JU928	5.0	11.2856095679	;
JU929	5.0	11.3788924254	;
JU930	5.0	11.0746527778	;
JU931	5.0	11.4330729167	;
JU932	5.0	11.3429457375	;
JU933	5.0	11.3975	;
JU934	5.0	12.2140798611	;
JU935	5.0	11.7549558588	;
JU936	5.0	11.5063661024	;
JU937	5.0	11.840875	;
JU938	5.0	11.2069676378	;
JU939	5.0	11.9593100767	;
JU940	5.0	11.1805772569	;
JU941	5.0	11.7320474055	;
JU942	5.0	11.7320474055	;
JU943	5.0	11.0070182292	;
JU944	5.0	10.69015625	;
JU945	5.0	10.81875	;
JU946	5.0	11.6291743827	;
JU947	5.0	11.953984375	;
JU948	5.0	11.0260677083	;
JU949	5.0	10.8773925781	;
JU950	5.0	10.7913720703	;
JU951	5.0	11.582848669	;
JU952	5.0	10.7382454427	;
JU953	5.0	10.63356807	;
JU954	5.0	11.2520717593	;
JU955	5.0	11.2713049769	;
JU956	5.0	10.68625	;
JU957	5.0	11.6218528992	;
JU958	5.0	10.885630787	;
JU959	5.0	11.4659751157	;
JU960	5.0	10.58	;
JU961	5.0	11.8595862269	;
JU962	5.0	11.4446403447	;
JU963	5.0	10.7859403935	;
JU964	5.0	10.795	;
JU965	5.0	11.7086605722	;
JU966	5.0	11.0852160494	;
JU967	5.0	11.9744140625	;
JU968	5.0	12.5870124421	;
JU969	5.0	11.9689670139	;
JU970	5.0	12.1752132161	;
JU971	5.0	10.6621527778	;
JU972	5.0	11.356646335	;
JU973	5.0	12.2113628472	;
JU974	7.4291087963	11.5819024884	;
JU975	5.0	10.7591550926	;
JU976	5.0	10.7197294108	;
JU977	5.0	10.7802883572	;
JU978	5.0	12.029176794	;
JU979	5.0	11.686875	;
JU980	5.0	11.6201052517	;
JU981	5.0	11.70875	;
JU982	5.0	12.2986108398	;
JU983	5.0	10.6560416667	;
JU984	5.0	11.1518402778	;
JU985	5.0	10.6144335938	;
JU986	5.0	12.5234741211	;
JU987	5.0	11.4010917798	;
JU988	10.1244212963	11.3215509259	;
JU989	5.0	11.5659450955	;
JU990	5.0	11.6445200593	;
JU991	5.0	11.1040966797	;
JU992	5.0	11.61866706	;
JU993	5.0	12.0701470872	;
JU994	5.0	11.188586034	;
JU995	5.0	12.541725803	;
JU996	5.0	11.4357696759	;
JU997	5.0	12.8106076389	;
JU998	5.0	11.2923310946	;
JU999	5.0	11.2753647661	;
JU1000	5.39930555556	10.6842361111	;
JU1001	5.0	11.516187066	;
JU1002	5.0	12.4298838306	;
JU1003	5.64471209491	10.9804080125	;
JU1004	5.0	11.5527783672	;
JU1005	5.0	11.225	;
JU1006	5.0	10.6898546007	;
JU1007	8.14935503673	11.6196907835	;
JU1008	5.0	11.95484375	;
JU1009	5.0	11.7135185185	;
JU1010	13.8387298584	12.0902573649	;
JU1011	5.0	11.5128889974	;
JU1012	5.0	11.9608203125	;
JU1013	5.0	11.7002962371	;
JU1014	5.00623914931	10.6024414741	;
JU1015	5.0	11.7689583333	;
JU1016	5.0	12.0102734375	;
JU1017	5.0	11.0485803675	;
JU1018	5.0	10.9791087963	;
JU1019	5.0	12.5152160494	;
JU1020	5.0	11.842193287	;
JU1021	5.0	11.1290364583	;
JU1022	5.0	12.5152160494	;
JU1023	5.0	10.9718311225	;
JU1024	5.0	10.9818692356	;
JU1025	5.0	10.9579636383	;
JU1026	5.0	11.7776011935	;
JU1027	5.0	11.2276528627	;
JU1028	5.0	11.8294197478	;
JU1029	5.0	10.9073133681	;
JU1030	5.0	11.0473690683	;
JU1031	5.0	11.211328125	;
JU1032	5.0	11.38625	;
JU1033	5.5615234375	11.062518466	;
JU1034	5.0	10.7708029514	;
JU1035	5.0	11.8821088325	;
JU1036	5.0	11.8556429036	;
JU1037	5.0	12.3359722222	;
JU1038	5.0	12.4033709491	;
JU1039	5.0	12.2978601049	;
JU1040	5.0	11.2115154803	;
JU1041	5.0	11.70308353	;
JU1042	5.0	11.30453125	;
JU1043	5.0	11.9754996462	;
JU1044	5.0	10.8274117477	;
JU1045	5.0	11.5736882716	;
JU1046	5.0	12.3718074047	;
JU1047	5.0	12.5412721597	;
JU1048	5.0	12.302871352	;
JU1049	5.0	12.2359684606	;
JU1050	5.0	11.8733673723	;
JU1051	5.0	12.0764532462	;
JU1052	5.0	12.1805630595	;
JU1053	5.0	12.5429855682	;
JU1054	5.0	11.6258237076	;
JU1055	5.0	12.5429855682	;
JU1056	5.0	12.3171349046	;
JU1057	5.0	11.9093318919	;
JU1058	6.99652777778	11.0652430556	;
JU1059	5.0	11.3893095341	;
JU1060	5.0	11.4848828125	;
JU1061	5.0	11.7679165136	;
JU1062	5.0	11.4134288194	;
JU1063	5.0	11.0450347222	;
JU1064	5.0	11.4798659035	;
JU1065	5.0	10.5850390625	;
JU1066	5.0	10.6246516927	;
JU1067	5.0	11.4569714506	;
JU1068	5.0	11.5353028549	;
JU1069	5.0	12.0541666667	;
JU1070	5.0	11.8602134874	;
JU1071	5.0	11.3335253906	;
JU1072	5.0	11.2051680143	;
JU1073	5.0	11.6556847862	;
JU1074	5.0	12.1945052083	;
JU1075	5.0	12.274546182	;
JU1076	5.0	11.5600390625	;
JU1077	5.0	11.2256454355	;
JU1078	5.0	11.197397716	;
JU1079	5.0	12.1210546875	;
JU1080	5.0	11.8912091291	;
JU1081	5.0	11.394375	;
JU1082	5.0	11.331796875	;
JU1083	5.0	11.2502989969	;
JU1084	5.0	11.3629105632	;
JU1085	5.0	10.9837763632	;
JU1086	5.0	12.1055381944	;
JU1087	5.0	11.6167303241	;
JU1088	5.0	10.7619900174	;
JU1089	5.0	10.9622306951	;
JU1090	5.0	11.8221041667	;
JU1091	5.0	11.0464160156	;
JU1092	5.0	11.5978588544	;
JU1093	5.0	11.3935510706	;
JU1094	5.0	11.3455486156	;
JU1095	5.0	12.236625434	;
JU1096	5.0	11.7932390679	;
JU1097	5.0	11.3139678277	;
JU1098	5.0	12.2417708333	;
JU1099	5.0	11.3031819661	;
JU1100	5.0	11.6172788166	;
JU1101	5.0	11.1579890046	;
JU1102	5.0	11.7338319378	;
JU1103	5.09982638889	11.2292263455	;
JU1104	5.0	11.1412245009	;
JU1105	5.0	11.3806005859	;
JU1106	5.0	11.4875672831	;
JU1107	5.0	11.1357694951	;
JU1108	5.0	11.1763397443	;
JU1109	5.0	11.4401403993	;
JU1110	5.0	10.8913953993	;
JU1111	5.0	11.2169338349	;
JU1112	5.0	11.8596527778	;
JU1113	5.0	10.9829796007	;
JU1114	5.0	11.9854861111	;
JU1115	5.0	11.7837345679	;
JU1116	5.0	11.9672067621	;
JU1117	5.0	11.8856996887	;
JU1118	5.0	11.0574874614	;
JU1119	5.0	11.4776681858	;
JU1120	5.0	11.3522916667	;
JU1121	5.0	11.5080309606	;
JU1122	5.0	10.79953125	;
JU1123	5.0	10.61123716	;
JU1124	5.0	10.9998549624	;
JU1125	5.0	11.5027083333	;
JU1126	5.0	10.6325	;
JU1127	5.00233968099	10.8866284434	;
JU1128	5.0	10.58	;
JU1129	5.0	11.331796875	;
JU1130	5.0	11.1175925926	;
JU1131	5.0	11.4667727623	;
JU1132	5.33275462963	10.8480425347	;
JU1133	5.0	10.6621527778	;
JU1134	5.0	11.3644466146	;
JU1135	5.0	11.9328027344	;
JU1136	5.0	11.2985928927	;
JU1137	5.0	11.1000487611	;
JU1138	5.0	11.2874076485	;
JU1139	5.0	11.3209775895	;
JU1140	5.0	11.384504485	;
JU1141	5.0	11.3212588815	;
JU1142	5.0	11.3033203125	;
JU1143	5.0	11.226468099	;
JU1144	5.0	11.5071875	;
JU1145	5.0	11.3439123987	;
JU1146	5.79861111111	11.1637847222	;
JU1147	5.0	12.0692242155	;
JU1148	5.0	12.4335784385	;
JU1149	5.0	12.0958378344	;
JU1150	5.0	11.1219791667	;
JU1151	5.0	12.4347634549	;
JU1152	5.0	11.1228395062	;
JU1153	5.0	11.8541015625	;
JU1154	5.0	11.3291276042	;
JU1155	5.0	11.7814730903	;
JU1156	5.0	11.8484266493	;