[TITLE]
Generated synthetic network;

[JUNCTIONS]
;ID	Elev	Demand	Pattern
JU1	5.0	11.68859375	;
JU2	5.0	11.4034201389	;
JU3	5.0	11.4543019387	;
JU4	5.0	11.9222569444	;
JU5	5.0	12.1528718171	;
JU6	5.0	11.9207327836	;
JU8	5.0	11.6047627315	;
JU10	5.79861111111	10.8339088723	;
JU11	5.0	10.6148971193	;
JU12	5.0	10.965	;
JU13	5.0	11.2558188657	;
JU14	5.0	10.6665233958	;
JU15	5.0	11.1011111111	;
JU17	5.0	11.0876388889	;
JU18	5.0	11.0196281829	;
JU19	5.0	10.919693287	;
JU20	5.0	11.2835725309	;
JU21	5.0	11.215466821	;
JU22	5.0	12.3233333333	;
JU23	5.0	11.44	;
JU24	5.0	11.2190277778	;
JU25	5.0	11.8253703704	;
JU26	5.0	11.6058101852	;
JU27	5.0	12.0184915123	;
JU28	5.0	12.1918976659	;
JU29	5.0	12.7499421296	;
JU30	5.0	10.804849537	;
JU31	5.0	10.9024247685	;
JU32	5.0	11.0	;
JU33	5.0	11.0237311921	;
JU34	5.0	10.6158333333	;
JU35	5.0	11.65625	;
JU36	5.0	11.3457368827	;
JU37	5.0	11.8474958205	;
JU38	5.0	10.6788387346	;
JU39	5.0	10.6788387346	;
JU40	5.0	13.025	;
JU41	5.0	10.6158333333	;
JU42	5.0	11.6679166667	;
JU43	5.0	11.897037037	;
JU44	5.0	12.2169135802	;
JU45	5.0	11.8520833333	;
JU46	5.0	11.8745601852	;
JU47	5.0	12.0391666667	;
JU48	5.0	12.0616666667	;
JU49	5.0	11.6857436343	;
JU50	5.0	11.6857436343	;
JU51	5.0	10.58	;
JU52	5.0	10.95625	;
JU53	5.0	11.3094791667	;
JU54	5.0	11.5623712384	;
JU55	5.0	11.0399739583	;
JU56	6.59722222222	11.4645015914	;
JU57	8.9486882716	11.4933737748	;
JU58	5.06655092593	11.23104239	;
JU59	5.0	11.0550195312	;
JU60	5.39930555556	11.3153049045	;
JU61	5.0	11.3	;
JU62	5.0	11.156875	;
JU63	5.0	11.1532107607	;
JU64	5.0	11.1658333333	;
JU65	5.0	11.1532107607	;
JU66	5.0	11.1532107607	;
JU67	5.0	11.9847663484	;
JU68	5.0	11.5146487992	;
JU69	5.0	12.8069675926	;
JU70	5.0	11.7590071615	;
JU71	5.0	11.4198415799	;
JU72	5.0	11.3107561126	;
JU73	5.0	11.56765625	;
JU74	5.0	11.295546875	;
JU75	5.0	11.2300390625	;
JU76	5.0	11.7971032665	;
JU77	5.0	11.354494659	;
JU78	5.0	11.6952295525	;
JU79	5.0	11.4811111111	;
JU80	5.0	11.5010108025	;
JU81	5.0	11.49375	;
JU82	5.0	10.58	;
JU83	5.0	11.5475	;
JU84	5.0	11.5475	;
JU85	5.0	12.19	;
JU86	5.0	11.7138541667	;
JU87	5.0	10.7464583333	;
JU88	5.0	11.3251591435	;
JU89	5.0	11.8935108025	;
JU90	5.0	11.2641145833	;
JU91	5.0	11.3251591435	;
JU92	5.0	10.826718107	;
JU93	5.0	12.0129166667	;
JU94	5.0	11.3398754001	;
JU95	5.0	11.4516765737	;
JU96	5.0	12.1478115355	;
JU97	5.0	11.9260493827	;
JU98	5.0	10.58	;
JU99	12.8086419753	11.8424575617	;
JU100	5.0	11.4877777778	;
JU101	5.0	11.5569187243	;
JU102	5.0	12.551360436	;
JU103	5.0	12.200462963	;
JU104	14.4122766565	11.0697497863	;
JU105	5.0	11.336712963	;
JU106	33.75	11.6575	;
JU107	5.0	10.8753935185	;
JU108	19.9074074074	11.4979329561	;
JU109	5.0	12.0401388889	;
JU110	5.0	10.8043981481	;
JU111	5.0	12.6702777778	;
JU112	5.0	11.4220833333	;
JU113	5.0	11.1763734568	;
JU114	5.0	11.8881445313	;
JU115	5.0	10.7576736111	;
JU116	5.0	11.2242914095	;
JU117	5.0	11.7022104874	;
JU118	5.0	11.345342364	;
JU119	5.0	12.1209722222	;
JU120	5.0	12.2263888889	;
JU121	5.0	10.8488888889	;
JU122	5.0	10.7614197531	;
JU123	5.59895833333	10.9620949074	;
JU124	5.0	12.7897222222	;
JU125	5.0	10.58	;
JU126	5.0	10.8308333333	;
JU127	5.0	10.6277777778	;
JU128	5.0	12.4872916667	;
JU129	5.0	10.795	;
JU130	5.0	10.9872337963	;
JU131	5.0	10.7282638889	;
JU132	5.0	10.7449537037	;
JU133	5.0	11.3103472222	;
JU134	5.0	10.8459567901	;
JU135	5.0	10.7449537037	;
JU136	5.0	10.9743846451	;
JU137	5.0	10.8459567901	;
JU138	5.0	10.8158674126	;
JU139	5.0	10.58	;
JU140	5.0	10.7282638889	;
JU141	5.0	10.6875	;
JU142	5.0	10.8676388889	;
JU143	5.0	11.6115429688	;
JU144	5.0	11.0979166667	;
JU145	5.0	11.4441167535	;
JU146	5.0	11.0979166667	;
JU147	5.0	11.3590458772	;
JU148	5.0	11.4441167535	;
JU149	5.0	13.1075	;
JU150	5.0	11.8609002058	;
JU151	5.0	11.9340277778	;
JU152	5.0	11.0	;
JU153	5.0	11.2162326389	;
JU154	5.0	12.3766666667	;
JU155	5.0	11.485787037	;
JU156	5.0	11.685617284	;
JU157	11.3888888889	11.3384722222	;
JU158	5.0	11.5818641975	;
JU159	5.0	11.2162326389	;
JU160	5.0	13.0217057292	;
JU161	5.0	11.1533333333	;
JU162	5.0	11.1175	;
JU163	5.0	11.525	;
JU164	5.0	11.433125	;
JU165	5.0	11.7545794753	;
JU166	5.0	11.3295386445	;
JU167	5.0	11.3201019965	;
JU168	5.0	11.2700825055	;
JU169	5.0	11.392219168	;
JU170	5.0	11.3728009259	;
JU171	5.0	11.5711934156	;
JU172	5.0	12.4444791667	;
JU173	5.0	11.70625	;
JU174	5.0	12.2169135802	;
JU175	5.0	12.3507183963	;
JU176	5.0	11.6370833333	;
JU177	5.0	11.3683333333	;
JU178	5.0	11.1132214506	;
JU179	5.0	11.7595976804	;
JU180	5.0	11.6298643864	;
JU181	5.0	12.0458830054	;
JU182	5.0	10.9075173611	;
JU183	5.0	12.2535141381	;
JU184	5.0	12.0772705949	;
JU185	5.0	11.8222222222	;
JU186	5.0	12.0073611111	;
JU187	5.0	13.0257947531	;
JU188	5.59895833333	10.9829976852	;
JU189	5.0	11.3384722222	;
JU190	5.0	11.4429861111	;
JU191	5.0	12.0129166667	;
JU192	5.0	12.0982366416	;
JU193	5.0	10.8108504801	;
JU194	5.0	11.6825325789	;
JU195	5.0	11.8778527949	;
JU196	5.0	11.9445457176	;
JU197	5.0	11.56	;
JU198	5.0	12.041300324	;
JU199	5.0	11.9445457176	;
JU200	5.0	11.1264583333	;
JU201	5.0	11.1918209877	;
JU202	5.0	11.0111059671	;
JU203	5.0	10.8089351852	;
JU204	5.0	10.9100205761	;
JU205	6.72755111883	11.5420731128	;
JU206	8.35837375971	11.6033320626	;
JU207	5.0	10.8089351852	;
JU208	5.0	11.9996354167	;
JU209	5.66458494084	11.4048567398	;
JU210	5.36556793338	11.3179495649	;
JU211	5.0	11.08	;
JU212	5.0	12.6583333333	;
JU213	5.0	12.6643055556	;
JU214	5.0	12.6702777778	;
JU215	5.0	12.4900888889	;
JU216	5.0	10.905154321	;
JU217	5.0	12.5762152778	;
JU218	5.0	12.1268055556	;
JU219	5.0	11.6049826389	;
JU220	5.0	11.8474958205	;
JU221	5.0	12.0073611111	;
JU222	5.0	11.21	;
JU223	5.0	13.025	;
JU224	5.0	11.73265625	;
JU225	5.0	11.7108577474	;
JU226	5.0	12.111875	;
JU227	5.0	11.97078125	;
JU228	5.0	10.6755555556	;
JU229	5.0	11.6115429688	;
JU230	5.0	11.8212654321	;
JU231	5.0	11.409843107	;
JU232	5.0	11.0645910494	;
JU233	5.0	11.1844226061	;
JU234	5.0	11.1365046296	;
JU235	5.0	12.06484375	;
JU236	5.0	11.6354644097	;
JU237	5.0	11.1019615912	;
JU238	5.0	11.2077267661	;
JU239	5.0	10.6516666667	;
JU240	5.0	11.1238888889	;
JU241	5.0	11.1674266975	;
JU242	5.0	10.9648668981	;
JU243	5.0	10.9616685957	;
JU244	5.0	10.8336467978	;
JU245	5.0	10.8128129823	;
JU246	5.0	10.7635300926	;
JU247	5.0	11.0376828275	;
JU248	5.0	11.0720730453	;
JU249	5.0	10.9430735597	;
JU250	5.0	10.7803330761	;
JU251	5.0	11.4405049726	;
JU252	5.0	11.2802530864	;
JU253	5.0	11.6337407407	;
JU254	5.0	11.4351837563	;
JU255	5.0	10.7743784294	;
JU256	5.0	10.8865863626	;
JU257	5.0	11.2551234568	;
JU258	5.0	11.0882812262	;
JU259	5.0	11.6901494449	;
JU260	5.0	11.3991190844	;
JU261	5.0	11.0057986111	;
JU262	5.0	11.5866001157	;
JU263	5.0	11.6578356481	;
JU264	5.0	11.7941696272	;
JU265	5.0	11.4360127315	;
JU266	5.0	11.7475694444	;
JU267	5.0	11.2195408951	;
JU268	5.0	10.8633159722	;
JU269	5.0	11.38625	;
JU270	5.0	12.3518055556	;
JU271	5.0	11.18375	;
JU272	5.0	11.7037109375	;
JU273	5.0	12.5431264468	;
JU274	5.0	12.4683600984	;
JU275	5.0	11.2488888889	;
JU276	5.0	11.1223662551	;
JU277	5.0	10.7003292181	;
JU278	5.0	11.1163027263	;
JU279	5.0	12.3653108724	;
JU280	5.0	12.5639553795	;
JU281	5.0	10.6587705761	;
JU282	5.0	10.753127572	;
JU283	5.0	10.8666666667	;
JU284	5.0	10.58	;
JU285	5.0	10.58	;
JU286	5.0	10.58	;
JU287	5.0	10.60625	;
JU288	5.0	11.5599348958	;
JU289	5.0	11.147499357	;
JU290	5.0	11.2429857896	;
JU291	5.0	11.3325	;
JU292	5.0	11.3325	;
JU293	5.0	10.58	;
JU294	5.0	10.653359375	;
JU295	5.0	11.388984375	;
JU296	5.0	11.738359375	;
JU297	5.0	10.72671875	;
JU298	5.0	10.58	;
JU299	5.0	11.1262792969	;
JU300	5.0	10.835452474	;
JU301	5.0	11.0470871914	;
JU302	5.0	11.578371994	;
JU303	5.0	11.6429273164	;
JU304	5.0	11.7423968179	;
JU305	5.0	11.4084056713	;
JU306	5.0	11.4713120298	;
JU307	5.0	11.2917920525	;
JU308	5.0	11.3043695345	;
JU309	5.0	11.0872241512	;
JU310	5.0	11.0470871914	;
JU311	5.0	10.999375	;
JU312	5.0	11.3369401042	;
JU313	5.0	11.976875	;
JU314	5.0	11.8405714699	;
JU315	5.0	11.5076650913	;
JU316	7.1337890625	10.9914369936	;
JU317	5.0	11.4623842593	;
JU318	5.0	10.9113541667	;
JU319	5.0	10.6897453704	;
JU320	5.0	10.8772800926	;
JU321	5.0	11.0579615162	;
JU322	5.0	10.9143976659	;
JU323	5.0	12.6284635417	;
JU324	5.0	12.2708333333	;
JU325	5.0	11.4960300926	;
JU326	5.0	11.4960300926	;
JU327	5.0	11.735625	;
JU328	5.0	11.6699305556	;
JU329	5.0	11.7185281636	;
JU330	5.0	11.6104816101	;
JU331	5.0	11.6104816101	;
JU332	5.0	11.7462326389	;
JU333	5.0	11.6720003858	;
JU334	5.0	10.7233333333	;
JU335	5.0	11.4459722222	;
JU336	5.0	10.9703761574	;
JU337	5.0	11.1724696181	;
JU338	5.0	11.8191666667	;
JU339	5.0	11.8241574436	;
JU340	5.0	11.4004340278	;
JU341	5.0	11.8333333333	;
JU342	5.0	11.3548958333	;
JU343	5.0	11.4207132523	;
JU344	5.0	11.2667361111	;
JU345	5.0	11.3666666667	;
JU346	5.0	11.2775180041	;
JU347	5.0	10.9440740741	;
JU348	5.0	10.9220119599	;
JU349	5.0	12.5529021991	;
JU350	5.0	12.4995833333	;
JU351	5.0	12.5477886285	;
JU352	5.0	12.6229239005	;
JU353	5.0	12.5694485888	;
JU354	5.0	11.6235811043	;
JU355	5.0	11.1042509002	;
JU356	5.0	10.9000233893	;
JU357	5.0	11.538125	;
JU358	5.07486979167	11.7377994792	;
JU359	5.0	11.3353602431	;
JU360	5.0	11.6435763889	;
JU361	5.0	11.6749131944	;
JU362	5.0	10.7860416667	;
JU363	5.0	11.3266666667	;
JU364	5.0	11.6095601852	;
JU365	5.0	11.2853356481	;
JU366	5.0	11.4225347222	;
JU367	5.0	11.9408333333	;
JU368	5.0	11.7810300926	;
JU369	22.3697916667	10.8726006063	;
JU370	5.0	10.8772800926	;
JU371	5.0	12.225625	;
JU372	5.0	11.0021158854	;
JU373	5.0	11.21	;
JU374	5.0	11.3675	;
JU375	5.0	12.6684375	;
JU376	5.0	11.5475	;
JU377	5.0	11.1015740741	;
JU378	5.0	13.1166666667	;
JU379	5.0	10.7432407407	;
JU380	5.0	10.999375	;
JU381	5.0	11.38625	;
JU382	5.0	11.0664800347	;
JU383	5.0	10.72	;
JU384	5.0	10.8163467721	;
JU385	5.0	11.4998405149	;
JU386	5.0	10.9714908854	;
JU387	5.0	11.1284078414	;
JU388	5.0	11.4440027609	;
JU389	5.0	11.2237353516	;
JU390	5.0	10.795	;
JU391	5.0	10.79	;
JU392	5.0	11.6769766348	;
JU393	5.0	11.2990835232	;
JU394	5.0	12.0464711934	;
JU395	5.0	11.892031893	;
JU396	5.0	10.6038888889	;
JU397	5.0	10.6038888889	;
JU398	5.0	11.3605631109	;
JU399	5.0	12.2347569444	;
JU400	5.0	12.2044444444	;
JU401	5.0	11.9100102881	;
JU402	5.0	12.7382098765	;
JU403	5.0	12.7425771605	;
JU404	5.0	12.2717386831	;
JU405	5.0	11.5849451303	;
JU406	5.0	12.1719804527	;
JU407	5.0	11.5475	;
JU408	5.0	11.3772916667	;
JU409	5.0	12.6103806584	;
JU410	5.0	12.1070572917	;
JU411	5.0	12.2237695312	;
JU412	5.0	10.7505671296	;
JU413	5.0	12.5642708333	;
JU414	5.0	11.1361265432	;
JU415	5.0	11.3839059245	;
JU416	5.0	11.5691599151	;
JU417	5.0	11.2232368827	;
JU418	5.0	12.021920439	;
JU419	5.0	11.744837963	;
JU420	5.0	11.6033701989	;
JU421	5.0	11.1092592593	;
JU422	5.0	12.2061111111	;
JU423	5.0	12.168563786	;
JU424	5.0	11.6495679012	;
JU425	5.0	11.8490369406	;
JU426	5.0	11.9307561728	;
JU427	5.0	11.522968107	;
JU428	5.0	11.6797805213	;
JU429	5.0	11.1607778742	;
JU430	5.0	11.9736805556	;
JU431	5.0	11.6341210938	;
JU432	8.19444444444	11.4429861111	;
JU433	5.0	11.7543258102	;
JU434	5.0	11.6236156925	;
JU435	5.0	11.5656641831	;
JU436	5.0	12.2907982494	;
JU437	5.0	11.9026106771	;
JU438	5.0	11.6060125506	;
JU439	5.0	10.7233333333	;
JU440	5.0	11.1155092593	;
JU441	5.0	10.7753414352	;
JU442	9.43672839506	12.2805343364	;
JU443	7.48456790123	12.3253366127	;
JU444	5.0	12.9780092593	;
JU445	5.0	11.58	;
JU446	5.0	10.9043936806	;
JU447	5.0	10.8308333333	;
JU448	5.0	11.2272670718	;
JU449	7.39583333333	12.365	;
JU450	5.0	12.731882716	;
JU451	5.0	11.0117447917	;
JU452	5.0	11.6104542824	;
JU453	5.0	11.2734047068	;
JU454	5.0	11.6052083333	;
JU455	5.0	11.6104542824	;
JU456	5.0	10.8027994679	;
JU457	5.0	11.0496393924	;
JU458	5.0	10.9220119599	;
JU459	5.0	10.7653896605	;
JU460	5.0	10.8657822424	;
JU461	5.0	12.4872916667	;
JU462	5.0	11.3235416667	;
JU463	5.0	11.3235416667	;
JU464	5.0	12.4564583333	;
JU465	5.19965277778	12.6635763889	;
JU466	5.0	10.9245003858	;
JU467	5.0	10.9245003858	;
JU468	5.0	11.1535176612	;
JU469	5.0	11.3921489198	;
JU470	5.0	10.6175925926	;
JU471	5.0	10.7372033608	;
JU472	5.0	10.7372033608	;
JU473	5.0	10.9275375086	;
JU474	5.0	10.9293566387	;
JU475	5.0	11.0228296825	;
JU476	5.0	10.8062944387	;
JU477	5.0	10.8108504801	;
JU478	5.0	10.7936196845	;
JU479	5.0	10.7936196845	;
JU480	5.0	10.8532996113	;
JU481	5.0	11.0834244792	;
JU482	5.0	11.4713120298	;
JU483	5.0	11.4545119599	;
JU484	5.0	12.4316904042	;
JU485	5.0	11.191400463	;
JU486	5.0	11.2952597737	;
JU487	5.0	11.720625	;
JU488	5.0	11.4278125	;
JU489	5.0	12.5060368441	;
JU490	5.0	11.3232421875	;
JU491	5.0	11.42703125	;
JU492	5.0	12.3650385903	;
JU493	5.0	11.6681481481	;
JU494	5.0	11.215466821	;
JU495	5.0	10.8496516927	;
JU496	5.0	10.8496516927	;
JU497	5.0	10.9841203704	;
JU498	5.0	12.1719804527	;
JU499	5.0	11.1513087746	;
JU500	5.0	11.9170865484	;
JU501	5.0	11.7502445023	;
JU502	5.0	11.6107782661	;
JU503	5.0	12.6969560185	;
JU504	5.0	11.0735339506	;
JU505	5.0	12.8844675926	;
JU506	5.0	12.8179108796	;
JU507	5.0	10.8529166667	;
JU508	5.0	12.0362345679	;
JU509	5.0	12.3650385903	;
JU510	5.0	10.6544898365	;
JU511	5.0	11.6463676698	;
JU512	5.0	11.6197178819	;
JU513	5.0	12.6294823013	;
JU514	5.0	12.516746359	;
JU515	5.0	11.8186734825	;
JU516	5.0	11.6060331469	;
JU517	5.0	11.5503472222	;
JU518	5.0	10.8212384259	;
JU519	5.0	11.1539316308	;
JU520	5.0	11.5640432099	;
JU521	5.0	11.5640432099	;
JU522	5.0	11.3000925926	;
JU523	5.0	11.4320679012	;
JU524	5.0	12.0031018519	;
JU525	6.06481481481	11.8231822274	;
JU526	5.0	11.6969097222	;
JU527	5.0	11.6969097222	;
JU528	5.0	12.3740596065	;
JU529	5.0	11.6969097222	;
JU530	5.01247829861	11.7573775454	;
JU531	5.0	10.7646294689	;
JU532	5.0	11.0897916667	;
JU533	5.0	11.4646875	;
JU534	5.0	11.249535108	;
JU535	5.0	10.8886458333	;
JU536	5.0	10.9861111111	;
JU537	5.0	10.945632716	;
JU538	5.0	10.5966276042	;
JU539	5.0	11.7805401235	;
JU540	5.0	11.9516666667	;
JU541	5.0	11.5495081019	;
JU542	5.0	11.3881316087	;
JU543	5.0	11.4221004325	;
JU544	5.0	11.5834691977	;
JU545	5.0	11.5889650849	;
JU546	5.0	11.0895379515	;
JU547	5.0	11.4011458333	;
JU548	5.0	11.4753269676	;
JU549	5.0	11.7658333333	;
JU550	5.0	10.7613194444	;
JU551	5.0	10.6889784071	;
JU552	5.0	11.2187210648	;
JU553	5.0	10.997261767	;
JU554	5.0	10.6266666667	;
JU555	5.0	10.8037767834	;
JU556	5.0	10.668207827	;
JU557	5.0	10.72690559	;
JU558	5.0	10.918316109	;
JU559	5.0	10.9250392683	;
JU560	5.0	10.5979166667	;
JU561	5.0	11.6609722222	;
JU562	5.0	11.6609722222	;
JU563	5.0	12.4532407407	;
JU564	5.0	11.4466666667	;
JU565	5.0	11.289367284	;
JU566	5.0	11.449924447	;
JU567	5.0	11.4427994792	;
JU568	5.0	11.2189729114	;
JU569	5.0	10.7398498943	;
JU570	5.0	10.7451736111	;
JU571	5.0	10.6807098765	;
JU572	5.0	10.58	;
JU573	5.0	10.6607445988	;
JU574	5.0	11.1092592593	;
JU575	5.0	11.3527083333	;
JU576	5.0	11.3527083333	;
JU577	5.0	10.58	;
JU578	5.0	10.58	;
JU579	5.0	10.58	;
JU580	5.0	10.6158333333	;
JU581	5.0	11.738359375	;
JU582	5.0	12.085	;
JU583	5.0	10.6158333333	;
JU584	5.0	10.7977224794	;
JU585	5.0	11.4220833333	;
JU586	5.0	10.7233333333	;
JU587	5.0	12.2183459523	;
JU588	5.0	11.5116666667	;
JU589	5.0	10.8024990347	;
JU590	5.0	11.2254186802	;
JU591	5.0	11.4038076708	;
JU592	5.0	12.0760416667	;
JU593	5.0	12.06484375	;
JU594	5.0	12.845625	;
JU595	5.0	12.0760416667	;
JU596	5.0	10.8832747999	;
JU597	5.0	11.4513054042	;
JU598	5.0	12.6402338727	;
JU599	5.0	12.0159575738	;
JU600	5.0	12.1196412037	;
JU601	5.0	12.0786664095	;
JU602	5.0	11.5948222804	;
JU603	5.0	12.7501041667	;
JU604	5.0	11.5269442033	;
JU605	5.0	10.6977777778	;
JU606	5.0	11.3905748155	;
JU607	5.0	11.4630536165	;
JU608	5.52408854167	10.7692144097	;
JU609	6.73448350694	10.8839322917	;
JU610	5.0	10.7836882716	;
JU611	5.0	11.0933777006	;
JU612	5.0	11.3205555556	;
JU613	5.0	11.8296875	;
JU614	5.0	10.866718107	;
JU615	5.0	10.866718107	;
JU616	5.0	10.58	;
JU617	5.0	11.87	;
JU618	5.0	10.710546875	;
JU619	5.0	10.58	;
JU620	5.0	10.9186213992	;
JU621	5.0	11.2764703897	;
JU622	5.29947916667	11.1801446759	;
JU623	6.0107421875	11.0515264516	;
JU624	5.0	11.2112890625	;
JU625	5.0	11.1485762442	;
JU626	5.0	11.1693794006	;
JU627	5.0	11.1175	;
JU628	5.0	12.576875	;
JU629	5.0	11.3000925926	;
JU630	5.0	10.997023534	;
JU631	5.0	11.7318212388	;
JU632	5.0	11.4602473958	;
JU633	5.0	11.4394965278	;
JU634	5.0	10.9975600405	;
JU635	5.0	11.466399042	;
JU636	5.0	10.6986111111	;
JU637	5.0	10.79	;
JU638	5.0	10.79	;
JU639	5.0	10.79	;
JU640	5.0	11.2125	;
JU641	5.0	11.0	;
JU642	5.0	11.21	;
JU643	5.0	10.895	;
JU644	5.0	12.0593489583	;
JU645	5.0	11.516728174	;
JU646	5.0	11.789375	;
JU647	5.0	11.4701388889	;
JU648	5.0	12.6505496781	;
JU649	5.0	10.918316109	;
JU650	5.0	11.3715295791	;
JU651	5.0	10.9061632945	;
JU652	5.0	11.0134208768	;
JU653	5.0	11.017471815	;
JU654	5.0	11.2903637009	;
JU655	5.0	11.293744213	;
JU656	5.0	11.4237654321	;
JU657	5.0	12.1477160494	;
JU658	5.0	11.8479670889	;
JU659	5.0	11.4997222222	;
JU660	5.0	11.16453125	;
JU661	5.0	11.4114453125	;
JU662	5.0	11.5475	;
JU663	5.0	12.2044444444	;
JU664	6.59722222222	12.6209876543	;
JU665	6.59722222222	12.6209876543	;
JU666	5.0	11.0378125	;
JU667	5.0	11.167890625	;
JU668	5.0	11.4225347222	;
JU669	5.0	11.1509635417	;
JU670	5.0	10.9800411523	;
JU671	5.0	11.6235811043	;
JU672	5.0	10.7421875	;
JU673	5.0	11.215234375	;
JU674	5.0	11.4133886719	;
JU675	5.0	12.731882716	;
JU676	5.0	11.0286197917	;
JU677	5.0	11.1948996914	;
JU678	5.0	11.4850188581	;
JU679	5.0	11.293744213	;
JU680	5.0	12.4900888889	;
JU681	5.0	11.3983238841	;
JU682	5.0	11.0286197917	;
JU683	5.0	10.8854036458	;
JU684	5.0	10.7969108374	;
JU685	6.96325231481	11.6296392144	;
JU686	5.0	10.8832747999	;
JU687	5.0	10.7989814815	;
JU688	5.0	12.6315123457	;
JU689	5.0	10.8308333333	;
JU690	5.0	10.9038271605	;
JU691	5.39930555556	11.0321527778	;
JU692	16.9791666667	11.468125	;
JU693	18.8259548611	11.8838660191	;
JU694	5.39930555556	11.0321527778	;
JU695	5.0	12.2047222222	;
JU696	5.0	12.2162916324	;
JU697	5.0	11.5261197917	;
JU698	5.0	11.0101171875	;
JU699	5.0	12.39291881	;
JU700	5.0	12.4152083333	;
JU701	5.0	11.899077915	;
JU702	5.0	12.1821875	;
JU703	14.5833333333	11.5425	;
JU704	20.7725694444	11.52890625	;
JU705	5.0	11.7705253344	;
JU706	5.0	11.2927604167	;
JU707	5.0	12.6497183642	;
JU708	5.0	11.3133333333	;
JU709	5.0	10.58	;
JU710	5.0	10.9840423659	;
JU711	5.0	11.7288025656	;
JU712	5.0	10.79	;
JU713	5.0	12.7121431327	;
JU714	5.0	12.8794020062	;
JU715	5.0	12.4727007542	;
JU716	5.0	12.3657298097	;
JU717	5.0	12.6374189815	;
JU719	5.0	12.576875	;
JU720	5.0	11.1238888889	;
JU721	22.5102880658	11.4887905093	;
JU722	5.0	10.58	;
JU723	5.0	12.0489756944	;
JU724	5.0	11.4855912423	;
JU725	5.0	11.4567807999	;
JU726	5.0	10.8149074074	;
JU727	5.0	11.5695043945	;
JU728	13.4630594136	11.6564030149	;
JU729	5.0	10.6357407407	;
JU730	5.0	10.8019675926	;
JU731	5.0	12.3945765818	;
JU732	5.0	10.7176929012	;
JU733	5.0	11.6758585612	;
JU734	5.0	11.7502922002	;
JU735	5.00623914931	11.7166180533	;
JU736	20.4841820988	11.2935604293	;
JU737	5.0	11.7160416667	;
JU738	5.0	10.7646294689	;
JU739	5.19965277778	11.5749569589	;
JU740	5.09982638889	11.329190719	;
JU741	20.4841820988	11.2935604293	;
JU742	5.07486979167	11.9477473958	;
JU743	5.0	11.8640277778	;
JU744	5.0	11.2548611111	;
JU745	5.0	11.3205555556	;
JU746	5.0	10.58	;
JU747	5.0	11.3538953189	;
JU748	5.0	12.3169856771	;
JU749	5.0	11.2054036458	;
JU750	5.0	11.2295616319	;
JU751	5.0	12.3543287037	;
JU752	5.0	10.79	;
JU753	5.0	11.44	;
JU754	5.0	10.9333137574	;
JU755	5.0	11.1780099826	;
JU756	5.0	11.3977777778	;
JU757	5.0	11.7319523112	;
JU758	5.09982638889	11.8171529586	;
JU759	5.0	11.21	;
JU760	5.0	12.705	;
JU761	5.0	11.5085339506	;
JU762	5.0	12.4532407407	;
JU763	5.0	11.2667361111	;
JU764	5.0	11.4377430556	;
JU765	5.0	11.6052083333	;
JU766	5.0	12.4532407407	;
JU767	5.0	11.4661496914	;
JU768	5.0	11.8172633891	;
JU769	5.0	12.0394319687	;
JU770	5.0	11.2364583333	;
JU771	5.0	11.8872915863	;
JU772	5.0	11.8872915863	;
JU773	5.0	11.6341210938	;
JU774	5.0	12.5461875482	;
JU775	5.0	12.7010324235	;
JU776	5.0	12.7591612815	;
JU777	5.0	12.7896239431	;
JU778	5.0	12.7591612815	;
JU779	5.0	11.8204166667	;
JU780	5.0	11.3151593579	;
JU781	5.0	12.5129195602	;
JU782	5.0	12.8254013551	;
JU783	5.0	12.9319910421	;
JU784	5.0	12.9860508596	;
JU785	5.0	12.9796025782	;
JU786	5.0	12.9025019667	;
JU787	5.0	12.8556901578	;
JU788	5.0	10.8338425926	;
JU789	5.0	11.5599348958	;
JU790	5.0	11.8333333333	;
JU791	5.0	12.0233072917	;
JU792	36.0792824074	11.6643344907	;
JU793	5.0	11.3315702964	;
JU794	5.0	11.7322081163	;
JU795	5.0	11.8536514529	;
JU796	5.0	12.6854640346	;
JU797	5.0	11.2281481481	;
JU798	5.53518036265	11.8309930646	;
JU799	5.0	11.8336655253	;
JU800	5.04436728395	11.3877958623	;
JU801	5.0	12.5001986581	;
JU802	5.0	12.3157831187	;
JU803	5.0	10.9025	;
JU804	5.0	11.5071354167	;
JU805	5.0	11.9075	;
JU806	6.67209201389	11.0154014757	;
JU807	5.0	12.4079908884	;
JU808	5.0	11.7638194444	;
JU809	5.0	12.4900888889	;
JU810	5.0	12.9780092593	;
JU811	5.0	12.0903645833	;
JU812	5.0	12.1217881944	;
JU813	5.0	11.6683117229	;
JU814	5.0	12.5484529321	;
JU815	18.487654321	11.2840792181	;
JU816	5.0	12.90625	;
JU817	5.0	12.69875	;
JU818	5.0	12.90625	;
JU819	5.0	11.1870003858	;
JU820	5.0	10.8905555556	;
JU821	5.0	12.6528954375	;
JU822	5.0	11.2272670718	;
JU823	5.0	11.4241048847	;
JU824	5.0	11.9913580247	;
JU825	5.0	11.3624584994	;
JU826	5.0	12.637909669	;
JU827	5.0	11.4581495949	;
JU828	5.0	12.5493844039	;
JU829	5.0	11.7397521973	;
JU830	5.0	11.7397521973	;
JU831	5.0	11.5812792969	;
JU832	5.0	11.5695410156	;
JU833	5.0	12.0390174897	;
JU834	5.0	11.4035648148	;
JU835	5.0	12.3740596065	;
JU836	5.0	12.0928110532	;
JU837	5.0	11.6561979167	;
JU838	5.0	11.7391493056	;
JU839	5.0	11.2229641632	;
JU840	5.0	11.1569178384	;
JU841	5.0	11.2364583333	;
JU842	5.0	12.8307561728	;
JU843	5.0	12.513644976	;
JU844	9.24262152778	12.3897439236	;
JU845	5.0	10.6228935185	;
JU846	5.0	11.6920659722	;
JU847	5.0	11.5905121528	;
JU848	5.0	11.4640598327	;
JU849	5.0	12.2288888889	;
JU850	5.0	12.2288888889	;
JU851	5.0	12.0224459877	;
JU852	5.0	12.1925	;
JU853	5.0	11.0762936104	;
JU854	5.0	11.5408140432	;
JU855	5.0	12.1965972222	;
JU856	5.0	11.4597654321	;
JU857	5.0	11.41359375	;
JU858	5.0	11.4597654321	;
JU859	5.0	10.6158333333	;
JU860	5.0	11.6864850984	;
JU861	5.0	11.6962127572	;
JU862	5.0	10.7522395833	;
JU863	5.0	11.6854519515	;
JU864	5.04991319444	11.2063075991	;
JU865	5.0	12.3375308473	;
JU866	5.0	11.9897028609	;
JU867	5.0	11.3598662816	;
JU868	5.0	11.8127555211	;
JU869	5.0	12.3784634574	;
JU870	5.0	12.3784634574	;
JU871	5.0	12.2549165819	;
JU872	5.0	12.3166900196	;
JU873	5.0	11.4651718711	;
JU874	5.0	11.6389636961	;
JU875	5.0	11.1526337697	;
JU876	5.0	11.9835243056	;
JU877	5.0	11.6374652778	;
JU878	5.0	10.9688888889	;
JU879	5.0	10.9129166667	;
JU880	5.0	11.0232899306	;
JU881	5.0	11.1111201055	;
JU882	5.0	11.1211796477	;
JU883	5.0	11.2269618056	;
JU884	5.0	11.2269618056	;
JU885	5.0	10.58	;
JU886	5.0	10.660625	;
JU887	5.0	11.6836393229	;
JU888	5.0	10.7859458591	;
JU889	5.0	10.74125	;
JU890	5.0	11.5691599151	;
JU891	5.0	10.6281018519	;
JU892	5.0	10.6725903421	;
JU893	5.0	11.289367284	;
JU894	5.0	11.6836393229	;
JU895	5.0	12.0939583333	;
JU896	5.0	10.7915884774	;
JU897	5.0	11.05625	;
JU898	5.0	11.3577430727	;
JU899	5.0	10.63375	;
JU900	5.0	10.7975694444	;
JU901	5.0	10.6158333333	;
JU902	5.0	11.2695171247	;
JU903	5.0	10.58	;
JU904	5.0	10.5979166667	;
JU905	5.0	11.8578896605	;
JU906	5.0	12.1774450231	;
JU907	5.0	12.0176673418	;
JU908	5.0	11.4997222222	;
JU909	5.0	12.1774450231	;
JU910	5.0	11.5878125	;
JU911	5.0	12.1774450231	;
JU912	5.0	12.0105822402	;
JU913	5.0	11.4340277778	;
JU914	5.0	11.9307561728	;
JU915	5.0	12.1729822531	;
JU916	5.0	11.4497482505	;
JU917	10.3240740741	11.902806713	;
JU918	5.0	13.0732445988	;
JU919	5.0	11.9513580247	;
JU920	5.0	11.8931790123	;
JU921	5.0	11.9422685185	;
JU922	5.0	11.6219759717	;
JU923	5.0	11.8418530424	;
JU924	5.0	11.5858383668	;
JU925	5.0	13.0732445988	;
JU926	5.00623914931	11.7446649283	;
JU927	5.0	10.9665972222	;
JU928	5.79861111111	12.5895679012	;
JU929	5.0	11.0407657174	;
JU930	5.0	10.8633333333	;
JU931	5.0	11.06375	;
JU932	5.0	10.8765588931	;
JU933	5.36556793338	11.2281951523	;
JU934	9.28144290123	11.8080295541	;
JU935	5.0	11.3082002315	;
JU936	5.0	11.5443701775	;
JU937	5.0	10.615	;
JU938	5.0	10.8206712963	;
JU939	5.0	10.8629128086	;
JU940	5.0	10.825	;
JU941	5.0	10.5919444444	;
JU942	5.0	10.5919444444	;
JU943	5.0	11.0133410494	;
JU944	5.0	10.8905555556	;
JU945	5.0	10.86508134	;
JU946	5.0	11.7749703414	;
JU947	5.0	10.9841203704	;
JU948	5.0	11.2921492312	;
JU949	5.0	11.2401012731	;
JU950	5.0	11.0703457755	;
JU951	5.0	12.0215866127	;
JU952	5.0	12.146477945	;
JU953	5.0	12.146477945	;
JU954	5.0	10.6991666667	;
JU955	5.0	10.9094767554	;
JU956	5.0	12.2812192966	;
JU957	5.0	12.2353043821	;
JU958	5.0	12.0643146581	;
JU959	5.0	11.2877083333	;
JU960	5.0	11.3041319444	;
JU961	5.0	11.836867284	;
JU962	5.0	12.6422605881	;
JU963	5.0	12.1383854167	;
JU964	5.0	10.6038888889	;
JU965	5.0	11.9309840106	;
JU966	5.0	10.6725903421	;
JU967	5.0	11.8844079272	;
JU968	5.0	12.1939716154	;
JU969	5.0	11.8282253086	;
JU970	5.0	11.6192978395	;
JU971	5.0	11.5414544753	;
JU972	5.0	11.6192978395	;
JU973	5.0	11.1354166667	;
JU974	5.0	11.5475	;
JU975	5.0	11.2335185185	;
JU976	5.0	11.0637172068	;
JU977	5.0	11.6470473251	;
JU978	5.0	11.2105755204	;
JU979	5.0	11.130232446	;
JU980	5.0	10.9463201913	;
JU981	5.0	10.6175925926	;
JU982	10.3157552083	11.3284391972	;
JU983	5.0	11.10171875	;
JU984	5.0	10.58	;
JU985	5.0	10.8400115741	;
JU986	5.0	10.988671875	;
JU987	5.0	11.4656047454	;
JU988	5.0	10.9143417245	;
JU989	5.0	11.2122685185	;
JU990	5.0	11.7468229167	;
JU991	5.0	11.0670833333	;
JU992	5.0	11.203588606	;
JU993	7.40311234086	11.5961541244	;
JU994	5.0	11.4279427083	;
JU995	5.0	11.44	;
JU996	5.0	10.9530584491	;
JU997	5.0	11.4990389902	;
JU998	5.0	11.3559103733	;
JU999	5.0	13.11875	;
JU1000	5.04991319444	13.0077690972	;
JU1001	5.0	13.1075	;
JU1002	5.53032769097	11.8031031178	;
JU1003	5.0	10.9475	;
JU1004	5.0	12.1550509581	;
JU1005	5.0	11.300462963	;
JU1006	5.0	11.6174800267	;
JU1007	5.3129973235	11.8115490271	;
JU1008	5.0	11.9995283565	;
JU1009	5.0	10.8813368056	;
JU1010	5.0	11.2003472222	;
JU1011	5.0	11.4889583333	;
JU1012	5.0	11.5419444444	;
JU1013	5.0	11.0378125	;
JU1014	7.90744357639	11.0759243215	;
JU1015	9.79166666667	12.5896296296	;
JU1016	5.0	11.1761342593	;
JU1017	5.0	11.5616261574	;
JU1018	5.0	11.2201244213	;
JU1019	5.0	10.58	;
JU1020	5.0	10.58	;
JU1021	5.0	11.0	;
JU1022	5.0	11.21	;
JU1023	5.0	11.8352391975	;
JU1024	5.0	12.1778935185	;
JU1025	5.0	11.135	;
JU1026	5.0	10.6	;
JU1027	5.0	11.8476822917	;
JU1028	5.0	11.28140625	;
JU1029	5.0	12.0868357554	;
JU1030	5.0	12.1356159552	;
JU1031	5.0	12.0868357554	;
JU1032	5.0	11.0681976595	;
JU1033	5.0	11.8696203061	;
JU1034	17.9355281207	11.6296135545	;
JU1035	5.0	12.2696905007	;
JU1036	5.0	12.1591227642	;
JU1037	5.0	12.5581481481	;
JU1038	11.2225115741	12.4837985468	;
JU1039	15.0242332176	12.1838322829	;
JU1040	17.9355281207	11.6296135545	;
JU1041	5.0	11.589275408	;
JU1042	11.5145961934	11.8215227543	;
JU1043	13.5678155007	11.7091617548	;
JU1044	5.2662037037	12.4318106996	;
JU1045	5.0	12.7336726587	;
JU1046	5.0	11.1535176612	;
JU1047	5.0	11.9458950617	;
JU1048	5.0	11.6975896991	;
JU1049	5.0	12.8556901578	;
JU1050	5.0	11.7135796441	;
JU1051	5.0	11.7992114358	;
JU1052	5.0	11.2775180041	;
JU1053	5.0	10.9954861111	;
JU1054	5.0	10.58	;
JU1055	5.0	11.4429861111	;
JU1056	5.0	12.1517609471	;
JU1057	5.0	11.6977303964	;
JU1058	5.0	12.715	;
JU1059	6.32893880208	10.8803257017	;
JU1060	5.0	10.685	;
JU1061	5.0	11.874504485	;
JU1062	5.0	10.86508134	;
JU1063	5.0	10.79375	;
JU1064	5.0	11.2347259195	;
JU1065	5.0	11.426799869	;
JU1066	36.3177565586	11.6314688647	;
JU1067	5.0	10.9201459619	;
JU1068	5.0	11.21	;
JU1069	5.0	12.3856240757	;
JU1070	5.0	11.3	;
JU1071	5.0	11.0728443287	;
JU1072	5.0	11.3382558111	;
JU1073	5.0	11.5179931038	;
JU1074	5.0	11.7387991898	;
JU1075	5.0	12.1278052662	;
JU1076	5.0	11.7593725887	;
JU1077	5.79861111111	11.7523972801	;
JU1078	5.0	11.7805401235	;
JU1079	5.0	11.3825	;
JU1080	5.0	11.0408333333	;
JU1081	5.0	10.72	;
JU1082	5.39930555556	10.7427877695	;
JU1083	5.0	10.9915789368	;
JU1084	5.0	10.5975	;
JU1085	5.0	10.5975	;
JU1086	5.0	10.9346006944	;
JU1087	5.0	11.1408912037	;
JU1088	5.0	11.860625	;
JU1089	5.0	11.3977777778	;
JU1090	23.3490781431	11.2412572038	;
JU1091	5.0	12.6481958912	;
JU1092	5.00415943287	11.3823054109	;
JU1093	5.0	11.3996875	;
JU1094	5.0	12.3384635417	;
JU1095	5.0	11.0365432099	;
JU1096	5.0	10.6277777778	;
JU1097	5.0	11.6281205387	;
JU1098	6.36983989198	11.7465698343	;
JU1099	5.0	11.7741495199	;
JU1100	5.0	11.7272516946	;
JU1101	5.0	12.4879412616	;
JU1102	5.0	11.7625	;
JU1103	5.0	10.9463201913	;
JU1104	5.0	11.2249104081	;
JU1105	12.9361979167	12.4392317708	;
JU1106	5.0415943287	11.6344458912	;
JU1107	5.0	11.2644444444	;
JU1108	5.0	10.8403815158	;
JU1109	5.0	10.6177211934	;
JU1110	5.0	10.7031878715	;
JU1111	5.0	10.6393685223	;
JU1112	5.0	10.6074588477	;
JU1113	5.0	10.985	;
JU1114	5.0	10.623413685	;
JU1115	5.0	11.5557947531	;
JU1116	5.0	11.4049831814	;
JU1117	5.0	11.5443112522	;
JU1118	5.0	11.3450407712	;
JU1119	5.0	11.4910509704	;
JU1120	5.0	11.7345213196	;
JU1121	5.0	12.0817622421	;
JU1122	5.0	11.6542332176	;
JU1123	5.0	10.951020126	;
JU1124	5.0	10.6456944444	;
JU1125	5.0	11.2938271605	;
JU1126	5.0	11.2791358025	;
JU1127	5.0	11.2938271605	;
JU1128	5.0	11.8381905649	;
JU1129	5.0	10.6427083333	;
JU1130	5.0	11.2130555556	;
JU1131	5.0	11.0992515432	;
JU1132	5.0	10.825617284	;
JU1133	5.0	10.7366435185	;
JU1134	9.24262152778	12.3897439236	;
JU1135	5.0	10.6014467593	;
JU1136	5.0	11.5421750016	;
JU1137	5.0	11.4748098271	;
JU1138	23.8671875	11.522109375	;
JU1139	28.5923032407	11.5847463721	;
JU1140	5.0	10.9071604938	;
JU1141	5.0	11.2122685185	;
JU1142	5.0	11.0836640028	;
JU1143	5.0	12.5847067901	;
JU1144	5.0	11.6281205387	;
JU1145	5.41732976466	12.5060931472	;
JU1146	5.0	11.4642578125	;
JU1147	5.0	12.10125	;
JU1148	5.0	12.4271986454	;
JU1149	5.0	11.9416666667	;
JU1150	5.0	11.8013194444	;
JU1151	5.0	12.0666666667	;
JU1152	5.0	12.06484375	;
JU1153	5.0	11.5943898896	;
JU1154	5.0	11.6107403489	;
JU1155	5.0	11.6027813146	;
JU1156	5.0	11.6923789545	;
JU1157	5.0	11.8466239069	;
JU1158	5.0	10.9825	;