[TITLE]
Generated synthetic network;

[JUNCTIONS]
;ID	Elev	Demand	Pattern
JU1	37.4940955075	1.51730673173	;
JU2	52.1764293981	0.706906038172	;
JU3	59.9643927228	0.69344063806	;
JU5	54.4339722222	0.355146703478	;
JU6	51.4827314815	1.29018930846	;
JU7	51.914845679	0.615554252662	;
JU8	64.5241167535	1.67625882721	;
JU10	66.0776331019	0.943487659353	;
JU11	64.3943209877	0.808025051722	;
JU12	55.7056957706	0.964988065093	;
JU13	56.9753652263	0.967993442242	;
JU14	54.3145330986	0.770080556965	;
JU15	59.8266666667	1.62903946583	;
JU16	62.623279321	1.49024189875	;
JU17	51.362598455	1.0582260837	;
JU18	53.2125	1.40335784857	;
JU20	53.0443612558	1.12870073911	;
JU21	63.8371354167	1.79132142104	;
JU22	55.9784924769	0.984937674561	;
JU23	55.1833969907	0.987898657366	;
JU24	32.7375308642	1.58272309407	;
JU25	43.0740467464	1.20748269554	;
JU26	58.7701167052	1.38082861433	;
JU29	29.1216145833	0.485639919877	;
JU30	37.7421397569	1.22779582158	;
JU31	55.4900651042	0.539340010819	;
JU32	42.5639412435	1.24831586662	;
JU33	37.6248459201	1.17799258226	;
JU34	29.1216145833	0.485639919877	;
JU35	49.9240645898	1.37983643116	;
JU36	43.6058544922	1.29790158571	;
JU37	55.9776745756	1.57314615595	;
JU38	56.2563218934	1.29927774203	;
JU39	22.9389506173	0.986176545531	;
JU41	38.1890596065	1.02877914139	;
JU43	55.1065299211	0.103982654724	;
JU44	25.2599412723	1.10230503059	;
JU45	50.8385036892	1.38955386164	;
JU46	45.2803523663	1.68507404697	;
JU47	55.1065299211	0.103982654724	;
JU48	43.1374565972	0.759619865341	;
JU49	63.0628703704	0.689833172843	;
JU50	52.9083752894	0.861121968518	;
JU51	56.1031799769	0.974435590042	;
JU52	53.3238195988	0.443273930763	;
JU53	53.2301157407	0.370955677917	;
JU54	43.762427662	0.635052524619	;
JU55	47.4928443287	0.736142404447	;
JU56	46.3846094956	0.607478648147	;
JU57	47.7083381559	0.654870230813	;
JU58	39.8754695939	1.21421647857	;
JU59	52.1846527778	0.683082391956	;
JU60	54.7725173611	0.531547335712	;
JU61	60.9046006944	0.992065400564	;
JU62	56.4153920718	1.07205073484	;
JU63	23.4535743884	1.02642796046	;
JU64	29.9972554977	1.09017797693	;
JU65	40.9540907118	0.779094001485	;
JU66	38.1349556629	1.057553703	;
JU67	27.8908569336	1.27609891074	;
JU68	37.1820507812	1.01784138394	;
JU69	37.779375	1.06967401469	;
JU70	37.8581944444	1.10400192308	;
JU71	61.8479101563	1.57980806992	;
JU72	46.8632421875	1.26581011335	;
JU73	41.0044788452	1.34254918548	;
JU74	35.7682571775	1.69492950096	;
JU75	45.3323798654	1.26186182164	;
JU76	58.6756944444	1.02050847761	;
JU77	28.6682407407	1.52895316755	;
JU78	43.2924143197	1.12416488611	;
JU79	54.0331352881	0.766506172384	;
JU80	57.7311395942	1.05596343598	;
JU81	37.6896917331	1.15087551241	;
JU82	35.1235254576	1.15643044323	;
JU83	52.1164585745	1.40269199476	;
JU84	49.6096326839	0.974577704984	;
JU85	54.3283333333	0.684267045359	;
JU86	49.0379654948	1.41191334207	;
JU87	66.3789347029	1.03745969651	;
JU88	39.5821238426	1.39912097192	;
JU89	61.2235302734	1.50579672216	;
JU90	55.8759866898	1.16371900375	;
JU91	70.9499614198	1.03560485785	;
JU92	44.1636104145	1.24879715244	;
JU93	58.7494444444	1.29351958336	;
JU94	43.2791015625	0.944550279734	;
JU95	50.7790451389	1.53476370788	;
JU96	45.7384979424	1.29241279212	;
JU97	43.1170733643	1.22000598703	;
JU98	44.2350906636	0.903961699282	;
JU99	45.9308796296	1.13081383007	;
JU100	51.5032060185	1.1123606214	;
JU101	45.6677623457	1.07993464912	;
JU102	43.923748071	1.01308127284	;
JU103	45.9891171553	0.977929115488	;
JU104	37.6896917331	1.15087551241	;
JU105	49.1226566117	1.35234694941	;
JU106	56.520162037	1.2335736786	;
JU107	51.9431640625	1.65653919565	;
JU108	62.8738235135	1.59102777468	;
JU109	68.6452170139	0.881743655845	;
JU110	47.3036572266	0.906284077208	;
JU111	56.1187094907	0.518186702697	;
JU112	78.939224537	1.00685481412	;
JU113	73.4736458333	1.0761989663	;
JU114	59.4013807509	0.954731621116	;
JU115	58.8010243056	3.34074835547	;
JU116	66.2915972222	1.21339792937	;
JU117	45.3515854874	0.624749643713	;
JU118	49.2414930556	1.3998166028	;
JU119	51.926242947	0.83930272591	;
JU121	34.8066324267	0.92242504071	;
JU122	53.0863831019	1.11949429356	;
JU123	52.0793677003	1.07806362657	;
JU124	56.2896180556	1.44742106773	;
JU125	53.8540097737	0.724371801287	;
JU126	61.1089208984	0.559960006024	;
JU127	72.6182508681	1.14775717643	;
JU128	56.8662618956	1.25344217123	;
JU129	34.1531905328	1.36046910567	;
JU130	59.6853125	0.51002986776	;
JU131	42.8367987236	1.58596468101	;
JU132	50.635976466	0.666443688631	;
JU133	73.9240697338	1.03866313565	;
JU134	57.0921428916	0.53300203678	;
JU135	52.6278196802	1.09385588767	;
JU136	40.8159895833	1.17290120193	;
JU137	50.3435030864	1.32348970627	;
JU138	53.9544927055	1.08067672878	;
JU139	58.8537319959	1.26472436886	;
JU140	53.7844774163	1.00856317067	;
JU141	58.0359313557	1.32208044932	;
JU142	34.9788935507	1.31351788343	;
JU143	56.8572180189	1.22209067345	;
JU144	51.8151399177	0.477828959032	;
JU145	45.7685598717	1.40479521349	;
JU146	79.8394328704	0.805419101159	;
JU147	63.0267899091	1.02972118978	;
JU148	53.6156322338	1.04444984545	;
JU149	40.1510073664	1.09115233515	;
JU150	50.0454710332	1.05861082245	;
JU151	59.2490274563	1.13257696951	;
JU152	50.1864472415	0.910231868966	;
JU153	48.6809782504	1.07325267429	;
JU154	48.7158429784	0.962878224839	;
JU155	49.9240645898	1.37983643116	;
JU156	38.7862673611	1.0045771835	;
JU157	14.1938541667	1.4969796754	;
JU158	54.7594589723	0.778195958007	;
JU159	59.4952883597	1.20997060948	;
JU160	46.3494166345	1.09525573906	;
JU161	32.5030902778	0.450190013943	;
JU162	57.2224565972	1.08773919822	;
JU163	62.2866886494	0.962992977066	;
JU164	52.2484722222	0.761790384528	;
JU165	30.8516184414	0.543519945934	;
JU166	46.8455872034	1.32633264538	;
JU167	41.0176405768	1.59288095773	;
JU168	41.0176405768	1.59288095773	;
JU169	44.5847108625	1.30061898114	;
JU170	44.5847108625	1.30061898114	;
JU171	55.1913906572	1.07712574509	;
JU172	50.1385801933	1.24459887145	;
JU173	58.9755450666	1.27712182998	;
JU174	51.8777846612	1.20926211184	;
JU175	51.8777846612	1.20926211184	;
JU176	48.4278573797	1.29955112049	;
JU177	60.921875	0.155352006844	;
JU178	55.3108331726	0.81574096132	;
JU179	52.1764293981	0.706906038172	;
JU180	61.2107256703	0.861688262894	;
JU181	41.0176405768	1.59288095773	;
JU182	56.2665649414	1.01560308574	;
JU183	60.0780821213	1.26325429651	;
JU184	51.7730439815	0.943197848459	;
JU185	58.4111111111	1.7345105767	;
JU186	54.7594589723	0.778195958007	;
JU187	51.6273177083	0.619885037507	;
JU188	44.3482697429	0.783450912599	;
JU189	28.4646527778	0.879980272493	;
JU190	45.31777183	1.09994717222	;
JU191	42.6868947724	0.84662739201	;
JU192	41.7136588542	0.645213236111	;
JU193	32.6541323061	1.57073209285	;
JU194	48.2752058819	1.06666624679	;
JU195	57.5127730758	0.92430272715	;
JU196	34.836359793	1.43575117651	;
JU197	52.1351403223	1.20170652054	;
JU198	46.6433680556	1.10662739386	;
JU199	34.4147967303	0.620589195406	;
JU200	45.6440429688	0.926375205583	;
JU201	82.7426678241	0.975677827345	;
JU202	79.8394328704	0.805419101159	;
JU203	48.6869228696	1.33570339442	;
JU204	50.7305859375	1.43593245686	;
JU205	56.9367708333	0.231241940849	;
JU206	49.6383383668	1.44050662831	;
JU207	48.1745592207	0.800174405967	;
JU208	55.9500124314	1.37825196949	;
JU209	53.6907209081	1.35130504011	;
JU210	47.2594301376	0.677449350772	;
JU211	52.438558224	0.949334498819	;
JU212	48.4763484734	0.728857204452	;
JU213	29.7279712818	0.934630002622	;
JU214	45.7685598717	1.40479521349	;
JU216	56.6101634453	1.17974893003	;
JU217	46.9671915389	1.34536634208	;
JU218	45.027974537	0.66741641005	;
JU219	49.6627083735	0.739430743999	;
JU220	47.1355015432	1.70433018522	;
JU221	52.5775261622	1.35793711014	;
JU222	48.7378255052	1.35211367757	;
JU223	60.6791666667	0.840610151948	;
JU224	29.4264660494	1.21566120699	;
JU225	39.4318055556	1.30669617978	;
JU226	60.6791666667	0.840610151948	;
JU227	58.5737037037	1.37017512549	;
JU228	49.0027546296	1.33843565263	;
JU229	52.9244381752	0.367561438916	;
JU230	46.9767486497	0.903371235149	;
JU231	58.5737037037	1.37017512549	;
JU232	51.0133506944	1.31045325865	;
JU233	47.0485031467	1.20496241193	;
JU234	54.4438416281	2.2721524078	;
JU235	60.1621433471	0.827272658298	;
JU236	50.5499647955	0.803203252197	;
JU237	50.411192076	1.01429334881	;
JU238	53.3402795762	1.02083717762	;
JU239	51.8151399177	0.477828959032	;
JU240	50.6110639709	0.953074836598	;
JU241	51.8292428627	1.17491347977	;
JU242	52.5532015778	0.876801545158	;
JU243	55.4495753762	1.13524261504	;
JU244	40.8393062789	1.23914060249	;
JU245	44.101378641	1.29573653718	;
JU246	43.0928486087	1.32809024011	;
JU247	42.382471748	1.10511514555	;
JU248	44.6088670267	0.998992540416	;
JU249	57.8734216761	0.495859391296	;
JU250	36.6120146123	1.54278995788	;
JU251	32.6541323061	1.57073209285	;
JU252	61.302892986	1.00822743172	;
JU253	48.27375	0.346567788594	;
JU254	22.5618308738	1.15219539172	;
JU255	62.3089641204	0.757469353034	;
JU256	40.5158603395	1.71705412867	;
JU257	54.295910735	0.889478386505	;
JU258	54.9403133635	1.15507799012	;
JU259	60.510308642	1.40966781773	;
JU260	55.40497503	1.49903001885	;
JU261	54.6773900195	0.906480796425	;
JU262	41.1334215678	1.22242092836	;
JU263	43.9479707845	1.13111147586	;
JU264	36.9877323344	1.17217899491	;
JU265	50.5860880835	1.19188005499	;
JU266	59.3855613426	0.597381703362	;
JU267	54.4077414308	1.17167291182	;
JU268	49.4604252847	1.18954342767	;
JU269	38.7862673611	1.0045771835	;
JU270	42.9103284144	0.639464588254	;
JU271	54.7769097222	0.738630698525	;
JU272	42.5639412435	1.24831586662	;
JU273	54.7725173611	0.531547335712	;
JU274	28.1329686144	1.5359392714	;
JU275	37.8849392361	1.21119357756	;
JU276	41.0567207862	1.4474996971	;
JU277	56.8904581404	0.858942377362	;
JU278	48.9315803434	0.96040419817	;
JU279	27.7297984936	1.59311371234	;
JU280	54.2295492541	0.782679669707	;
JU281	45.7163867188	0.937697478983	;
JU282	45.536397268	0.553138398674	;
JU283	45.536397268	0.553138398674	;
JU284	58.9007182959	0.78721387214	;
JU285	56.6232534602	0.865401833088	;
JU286	50.4712880712	0.747907835321	;
JU287	51.919590969	0.878628687346	;
JU288	61.3335792824	1.05589929869	;
JU289	59.3855613426	0.597381703362	;
JU290	60.5412471065	0.881782134205	;
JU291	49.7049772135	0.597082150687	;
JU292	52.8869596354	0.764971851297	;
JU293	52.7607884356	0.773873746307	;
JU294	58.2973423032	1.13971317553	;
JU295	56.2660467303	1.34632126057	;
JU296	29.8419581887	0.914482112243	;
JU297	57.2134242983	1.26414102904	;
JU298	52.6012169657	0.408316673519	;
JU299	61.0886892361	1.14569530173	;
JU300	56.947720602	1.30747436409	;
JU301	40.6811154514	0.904876005132	;
JU302	27.8191000931	1.5349487369	;
JU303	51.4410224988	1.09256467306	;
JU304	37.4940955075	1.51730673173	;
JU305	30.7714872685	0.412900314761	;
JU306	50.07891454	0.918243702571	;
JU307	51.7417717978	1.67228461413	;
JU308	30.1946576003	0.532081942406	;
JU309	47.2195833333	0.449488100885	;
JU310	58.6647415054	1.18030069601	;
JU311	34.2136294858	1.24064025139	;
JU312	56.6587474195	0.994286497536	;
JU313	44.6021988819	1.18035712239	;
JU314	38.35	0.8364159615	;
JU315	59.2238044142	1.10848004328	;
JU316	46.9379608604	1.10881171509	;
JU317	47.0170443333	1.29394721403	;
JU318	46.885089247	1.41619407146	;
JU319	46.9485999186	1.4114566074	;
JU320	46.4543516933	1.4404586462	;
JU321	45.3405106882	1.50252083459	;
JU322	47.7893506362	1.46582544059	;
JU323	60.8159203197	0.658300598501	;
JU324	51.9139646629	1.00003890629	;
JU325	33.2672710727	1.50370424322	;
JU326	48.6033931126	1.01353522248	;
JU327	14.1938541667	1.4969796754	;
JU328	48.1958333333	1.02314186953	;
JU329	52.5403024691	0.467301574206	;
JU330	53.0201215278	0.415376682037	;
JU331	58.7998130064	1.20111027963	;
JU332	54.9403133635	1.15507799012	;
JU333	53.0971111834	0.561311733178	;
JU334	51.1870126833	1.15296779344	;
JU335	30.3261935764	0.955296650911	;
JU336	60.7353798053	1.2751799996	;
JU337	49.9148272955	0.634891803243	;
JU338	56.814408185	1.16809588194	;
JU339	52.0183822764	1.31369628173	;
JU340	33.4729333044	0.641504644577	;
JU341	66.3300925926	1.46794135785	;
JU342	41.7825036913	1.05841420731	;
JU343	68.6452170139	0.881743655845	;
JU344	57.0659527814	1.18345934534	;
JU345	55.9272395833	1.07432833916	;
JU346	9.46520833333	1.51513867779	;
JU347	61.9006446116	1.22354145656	;
JU348	30.194315502	0.802775502142	;
JU349	49.6879582208	1.0911000517	;
JU350	50.191448206	1.1000237404	;
JU351	56.6224329668	2.80645038163	;
JU352	49.3220801183	1.0764380067	;
JU353	45.5483966592	0.693021343878	;
JU354	41.8156187518	1.03503223884	;
JU355	43.7023914663	0.773742333965	;
JU356	58.968660996	0.689471675532	;
JU357	36.2754488511	1.10831872092	;
JU358	36.1186218262	1.12259366287	;
JU359	62.0190854522	0.50609268619	;
JU360	43.3808734809	0.784285192581	;
JU361	62.1619727885	0.953978608745	;
JU362	60.8159203197	0.658300598501	;
JU363	52.5308282697	1.19116165005	;
JU364	49.8331649064	1.44774591763	;
JU365	67.602920173	0.983468928565	;
JU366	30.3995138889	0.963155897722	;
JU367	49.6032106301	0.66507381659	;
JU368	46.871167307	0.675507245819	;
JU369	47.2594301376	0.677449350772	;
JU370	44.6248057726	0.980622705028	;
JU371	50.8467796345	0.518033273351	;
JU372	47.7629846518	1.10833109748	;
JU373	48.3047807356	0.765719700709	;
JU374	60.7448198115	0.882896485036	;
JU375	50.7398781507	0.385796128984	;
JU376	52.6301977773	0.387330288086	;
JU377	42.5773374405	0.503192662195	;
JU378	53.1246083804	0.942348507182	;
JU379	29.9936096644	0.961411084677	;
JU380	34.7310199653	0.506202358516	;
JU381	51.7417717978	1.67228461413	;
JU382	28.255270544	0.317523118184	;
JU383	64.459375	1.09380596963	;
JU384	41.2946527778	0.939348847469	;
JU385	38.177341821	1.28883675626	;
JU386	57.2357961998	1.47795502023	;
JU387	46.8201304838	0.676216110574	;
JU388	38.3503193834	0.981505386595	;
JU389	53.3803125386	0.375014066607	;
JU390	54.9868856604	0.766663212156	;
JU391	46.0555992798	1.07086968577	;
JU392	50.7935375644	1.16188639379	;
JU393	50.0649972308	1.03279055327	;
JU394	48.3250099398	1.16732315643	;
JU395	48.4037797314	1.01992660287	;
JU396	47.4824511317	1.11459993685	;
JU397	48.3979828316	1.29506729799	;
JU398	46.8246424808	1.18541975823	;
JU399	48.4528837247	1.34249863658	;
JU400	39.8619268422	1.40836617804	;
JU401	30.6507569113	1.26192445091	;
JU402	30.346788315	0.729001029089	;
JU403	72.5784886188	1.11900410281	;
JU404	56.6067353877	1.52555058809	;
JU405	78.0976591435	0.831209652714	;
JU406	63.0628703704	0.689833172843	;
JU407	53.9039539931	0.699741271598	;
JU408	56.5445005516	0.817894572621	;
JU409	39.2781332887	0.73819228414	;
JU410	37.377563452	1.09761045355	;
JU411	41.9004024553	1.24902677525	;
JU412	49.8854940683	1.0052417601	;
JU413	51.268653459	0.896188781254	;
JU414	42.1823735894	1.19890551089	;
JU415	50.482849245	1.3187826981	;
JU416	44.1838014407	1.04994225076	;
JU417	37.8070505401	1.20023992424	;
JU418	23.1962625029	1.006302253	;
JU419	56.6497984718	1.09406579804	;
JU420	45.8038915949	1.20972916287	;
JU421	58.2273311218	1.20256535356	;
JU422	47.8356749584	1.0065964515	;
JU423	48.1248151313	0.995752687604	;
JU424	29.6379699556	0.573559392024	;
JU425	47.8356749584	1.0065964515	;
JU426	33.5621412115	1.06330811958	;
JU427	41.9489573688	0.606189997468	;
JU428	27.411304374	0.82154302456	;
JU429	27.411304374	0.82154302456	;
JU430	26.854197772	0.275286867046	;
JU431	36.0980656829	0.910217898519	;
JU432	38.2531029369	0.970437953649	;
JU433	31.6372887731	0.431545164352	;
JU434	30.8860086323	0.53062301172	;
JU435	60.7017690321	1.24152942483	;
JU436	60.3082451815	0.755322298589	;
JU437	59.442632048	0.881616148878	;
JU438	58.7992937939	1.17549453801	;
JU439	60.1602188625	1.01216487275	;
JU440	45.9855237269	0.777728501578	;
JU441	28.1001801724	1.41722876805	;
JU442	39.4465804112	0.700517863736	;
JU443	42.5146280924	1.01675996195	;
JU444	52.5597539952	0.462801488	;
JU445	39.8574558738	1.51574325868	;
JU446	30.3546791284	1.25745659231	;
JU447	58.1385404008	0.950088138773	;
JU448	31.2388940329	1.14009556452	;
JU449	63.0368020743	1.213289606	;
JU450	38.84703125	0.901124387578	;
JU451	59.7050251575	1.3273108855	;
JU452	47.4163396053	1.61238338327	;
JU453	41.4967248234	1.29112934341	;
JU454	49.5286539066	1.44452166278	;
JU455	32.9789145689	0.609871075708	;
JU456	56.1520886716	0.623012546349	;
JU457	52.4975269024	0.621954208096	;
JU458	60.8055690838	0.881774865153	;
JU459	50.9268782552	1.32886161389	;
JU460	65.8662264031	0.839603203427	;
JU461	49.7070023148	1.46530599659	;
JU462	61.5940583093	0.970739428723	;
JU463	39.1443846451	1.24579307966	;
JU464	62.9656849378	0.930809840967	;
JU465	51.0801176379	0.680692476048	;
JU466	67.4714095052	1.18568967446	;
JU467	59.9208552608	1.24167114553	;
JU468	39.1200091092	1.09641995977	;
JU469	46.9016580899	1.42562291374	;
JU470	50.4836520892	0.980722149202	;
JU471	50.1184166308	1.34877039925	;
JU472	56.333283313	1.02306128559	;
JU473	42.0349279032	0.904501240584	;
JU474	62.198205697	0.82122878124	;
JU475	40.6860972087	1.25267291099	;
JU476	42.8456955658	1.47004006488	;
JU477	56.9929718936	1.35016620941	;
JU478	47.0064169132	1.08858644115	;
JU479	31.0953892988	0.951228370423	;
JU480	41.8371043113	1.04855466457	;
JU481	36.2754488511	1.10831872092	;
JU482	36.2754488511	1.10831872092	;
JU483	55.9133333333	0.991362692167	;
JU484	45.7163867188	0.937697478983	;
JU485	42.5108420139	0.752657301723	;
JU486	41.7324663628	0.765875651604	;
JU487	54.2334620413	0.796496179504	;
JU488	47.8039765987	0.65698451745	;
JU489	55.9500124314	1.37825196949	;
JU490	42.9117995199	0.859837906777	;
JU491	44.8098582176	0.32516929026	;
JU492	53.9042723404	1.1398096266	;
JU493	42.7950065908	1.38539306886	;
JU494	60.8584098538	0.556655700208	;
JU495	60.5025974347	0.879897049961	;
JU496	42.3727866392	0.856214517868	;
JU497	47.5032617187	0.922718198364	;
JU498	46.6098242187	0.930207838674	;
JU499	41.164513708	1.23449643388	;
JU500	72.2744907407	1.21163305908	;
JU501	54.4438416281	2.2721524078	;
JU502	64.997503215	1.21570916249	;
JU503	57.2347651026	1.21456399702	;
JU504	68.3150075553	1.15416356165	;
JU505	63.3413307417	1.02185529105	;
JU506	55.019641418	0.825014971079	;
JU507	51.4827314815	1.29018930846	;
JU508	38.959683642	1.31404381883	;
JU509	45.8038915949	1.20972916287	;
JU510	48.544285964	1.4227656825	;
JU511	60.921875	0.155352006844	;
JU512	39.3372554977	1.43773143169	;
JU513	53.3824009196	1.33457084318	;
JU514	52.5400771103	0.505677310096	;
JU515	42.4622861509	1.36280731235	;
JU516	53.071427926	1.30974442013	;
JU517	51.6584368938	0.47418808708	;
JU518	52.1834722222	0.868564230861	;
JU519	47.5990422454	0.928376669461	;
JU520	59.5754955453	0.58959375388	;
JU521	54.6738089519	0.841307380099	;
JU522	54.5452692781	0.597231927025	;
JU523	42.974437934	0.850649201553	;
JU524	47.2478831428	1.40331039044	;
JU525	30.0606568866	1.33796515326	;
JU526	56.6232534602	0.865401833088	;
JU527	53.6156322338	1.04444984545	;
JU528	56.5618916453	1.28828691766	;
JU529	54.5774336835	1.09178590278	;
JU530	41.4330465535	1.18924536928	;
JU531	45.2803523663	1.68507404697	;
JU532	58.4555555556	1.76019432669	;
JU533	54.6600231481	1.67724965863	;
JU534	49.2156952884	1.48562159408	;
JU535	51.1737222102	1.28104807222	;
JU536	57.4340376865	0.968082095436	;
JU537	39.0836146677	1.13429904197	;
JU538	38.177341821	1.28883675626	;
JU539	37.8321571181	1.14043379612	;
JU540	38.6304782444	1.21156789911	;
JU541	49.4345989546	0.692089439256	;
JU542	50.3350496654	0.945477009084	;
JU543	53.9077100897	0.972720006552	;
JU544	39.4426968045	0.99400675637	;
JU545	58.7905862244	0.915852143825	;
JU546	57.6137599666	1.05875732203	;
JU547	58.7992937939	1.17549453801	;
JU548	60.921875	0.155352006844	;
JU549	59.462204051	0.97177165761	;
JU550	48.731662419	1.20495905516	;
JU551	43.3657989058	0.87613863989	;
JU552	51.8593012689	0.76366343729	;
JU553	56.3867918337	0.693737803825	;
JU554	44.6058661265	0.926531446041	;
JU555	46.7359956383	0.844174829956	;
JU556	42.3053658024	0.856776218778	;
JU557	55.5803394459	0.523574869366	;
JU558	54.7166558904	0.231559460949	;
JU559	52.1025586172	1.73387608354	;
JU560	9.46520833333	1.51513867779	;
JU561	43.160417764	0.944955448236	;
JU562	46.9507434583	0.837025747288	;
JU563	53.668910108	0.689408042856	;
JU564	38.3758138523	1.01135959343	;
JU565	55.900405658	1.22278657937	;
JU566	52.1777211934	0.472565266619	;
JU567	50.3540174696	0.443005503703	;
JU568	54.0809027778	0.876576538347	;
JU569	33.2699149091	1.20051661705	;
JU570	54.3797525238	1.20742615052	;
JU571	27.517566079	1.3005083053	;
JU572	58.8222494658	1.30983132484	;
JU573	42.2499678222	1.46144023442	;
JU574	32.2270117658	1.2096031644	;
JU575	37.5101970228	1.27940404525	;
JU576	43.8349105379	1.04801520341	;
JU577	31.4292528292	1.38387028754	;
JU578	33.5692179784	1.09464897791	;
JU579	39.4840007478	1.44856622735	;
JU580	58.2301980453	0.773216516914	;
JU581	52.3816429827	0.975093119473	;
JU582	55.2150576937	1.18318197127	;
JU583	59.6571759259	1.05927526461	;
JU584	29.1216145833	0.485639919877	;
JU585	47.0516382729	0.842460454692	;
JU586	52.2031661925	1.14673874202	;
JU587	56.7211936166	1.09239850791	;
JU588	54.2351933433	0.593445787323	;
JU589	48.6008347006	1.11085567087	;
JU590	56.0925255142	1.16789857377	;
JU591	43.5062559354	1.14743578719	;
JU592	47.1806875352	1.37749253453	;
JU593	43.0856946608	1.20064483718	;
JU594	47.6734829925	0.582617142147	;
JU595	43.4967405519	1.34938590949	;
JU596	50.8829379427	0.933391199577	;
JU597	39.881052263	0.935325680535	;
JU598	44.3482697429	0.783450912599	;
JU599	31.5554562416	0.94759028668	;
JU600	31.0953892988	0.951228370423	;
JU601	39.8754695939	1.21421647857	;
JU602	53.3648720958	0.899489176828	;
JU603	47.1305297148	1.18022524449	;
JU604	11.82953125	1.50605917659	;
JU605	20.8215017361	1.48424531396	;
JU606	41.5658779229	0.976700087746	;
JU607	41.6741908071	1.01755714753	;
JU608	64.459375	1.09380596963	;
JU609	49.8016180556	0.346528358651	;
JU610	50.7790451389	1.53476370788	;
JU611	56.1330688175	1.36265864366	;
JU612	57.2064069613	1.19665064431	;
JU613	78.2619782624	1.07259447729	;
JU614	44.6004200449	1.07512032643	;
JU615	58.6937556129	1.04839366109	;
JU616	48.8717362166	0.913048179005	;
JU617	50.7161691824	1.44539065967	;
JU618	49.9831505594	1.19165864333	;
JU619	48.5289311068	1.20071806005	;
JU620	38.959683642	1.31404381883	;
JU621	36.1285239288	0.674031679924	;
JU622	45.3686053241	1.59000201267	;
JU623	38.1349556629	1.057553703	;
JU624	43.4171564751	1.0226923925	;
JU625	46.6768604947	0.986958204661	;
JU626	42.190948699	1.53870943911	;
JU627	46.885089247	1.41619407146	;
JU628	49.0578464185	0.803149905152	;
JU629	55.3942914538	0.982957103413	;
JU630	49.5114663709	0.923572905104	;
JU631	59.4349493735	1.17034849537	;
JU632	52.3230169929	1.3349598525	;
JU633	56.0925255142	1.16789857377	;
JU634	60.3792314569	1.24875911705	;
JU635	58.3326950192	0.875264010439	;
JU636	48.1625623974	1.49495592212	;
JU637	48.6619272692	1.10127118104	;
JU638	30.7208510349	1.08667909966	;
JU639	48.5050111906	0.549468865396	;
JU640	52.6157073715	0.397823480803	;
JU641	50.6239989989	0.520827513108	;
JU642	27.4165834267	1.09672988293	;
JU643	48.5381134709	0.688247132273	;
JU644	46.951547309	1.23424584271	;
JU645	50.3893190586	0.828188229566	;
JU646	61.302892986	1.00822743172	;
JU647	55.387750425	1.09233208755	;
JU648	55.4433669102	1.1732228205	;
JU649	53.7201435758	1.14832557898	;
JU650	36.3389595524	1.35231792505	;
JU651	35.1290634723	1.13820859011	;
JU652	38.8290702482	0.70580883287	;
JU653	39.5022325667	0.803587647661	;
JU654	51.8727817966	0.950026047501	;
JU655	44.6607800427	1.16499745514	;
JU656	35.1235254576	1.15643044323	;
JU657	36.8923772822	1.20568449062	;
JU658	40.3421983507	1.31477105212	;
JU659	45.0278030358	1.5023971499	;
JU660	50.207326131	1.43796936501	;
JU661	45.6223242556	1.4532710709	;
JU662	31.9760934561	1.14983396279	;
JU663	31.0924986422	1.11909608033	;
JU664	29.2545410344	1.10791298163	;
JU665	58.6615740741	1.33184735442	;
JU666	33.0562141626	0.86141221773	;
JU667	39.0855409272	1.35527302312	;
JU668	43.8670286177	0.86493239463	;
JU669	59.9070904152	1.20955380621	;
JU670	34.5429393504	1.14567738045	;
JU671	27.554734158	0.296404992615	;
JU672	41.8560851599	1.15935042001	;
JU673	46.0048336774	1.04630462149	;
JU674	41.6073551859	0.806047722256	;
JU675	48.1188149108	0.725816076292	;
JU676	34.1145871631	1.47958175411	;
JU677	33.5557660467	1.11711689083	;
JU678	45.3686053241	1.59000201267	;
JU679	49.6963057442	0.663194208049	;
JU680	48.27375	0.346567788594	;
JU681	46.865598904	1.15190763405	;
JU682	75.3579550058	0.98948341457	;
JU683	52.5652531063	0.776289912719	;
JU684	47.888859592	0.635645685974	;
JU685	46.9186312106	0.956327084398	;
JU686	53.1063301746	0.56007037501	;
JU687	42.3053658024	0.856776218778	;
JU688	43.2455744086	0.729655210953	;
JU689	47.3613366448	0.900369282872	;
JU690	57.766194772	0.504038377985	;
JU691	51.0574245803	0.505257284164	;
JU692	59.6815682669	0.862926119625	;
JU693	38.5117597616	1.71068680632	;
JU694	59.027198565	1.33014029149	;
JU695	53.3665625	1.53145620794	;
JU696	56.6309234167	0.992161662507	;
JU697	53.4850226659	0.720079583345	;
JU698	57.6543388545	1.08375453414	;
JU699	53.2826672914	1.32196626366	;
JU700	40.0339136245	1.27566438285	;
JU701	50.495685175	1.17350808929	;
JU702	52.3882971644	1.2206720931	;
JU703	58.0621788856	1.24700619154	;
JU704	58.4039196314	1.17108102051	;
JU705	51.0568644759	1.08123366259	;
JU706	51.8875649836	1.43539982129	;
JU707	51.9781621156	1.2652241541	;
JU708	57.1755632716	1.72398485401	;
JU709	62.8425227865	1.68556474548	;
JU710	58.6756944444	1.02050847761	;
JU711	36.2754488511	1.10831872092	;
JU712	57.2134242983	1.26414102904	;
JU713	53.25446538	1.37101261306	;
JU714	53.9640872735	1.3217380618	;
JU715	41.9654097874	1.59494271154	;
JU716	44.0471421833	0.715616100262	;
JU717	55.8488125031	0.754739382573	;
JU718	42.8048596644	0.790558848983	;
JU719	44.8891885824	0.794755867706	;
JU720	52.0629769364	1.09395807929	;
JU721	34.3456023419	1.10075835484	;
JU722	44.042082513	1.02972333782	;
JU723	44.5829132808	1.3257778876	;
JU724	47.0000252279	1.21960412732	;
JU725	46.175875258	1.07551903936	;
JU726	48.2752058819	1.06666624679	;
JU727	43.9790320243	1.20392034329	;
JU728	50.2391860372	1.1067024944	;
JU729	53.3803125386	0.375014066607	;
JU730	57.4240223534	1.22489786218	;
JU731	46.9317978395	1.05153825932	;
JU732	41.2086498655	1.01318343324	;
JU733	44.3404657192	0.74597128968	;
JU734	45.3967243327	0.713226260298	;
JU735	33.4626552333	1.25031055352	;
JU736	44.4798605061	0.744313294648	;
JU737	52.1757871576	1.17470683866	;
JU738	43.464063003	1.04718880516	;
JU739	54.2152515553	1.37422801994	;
JU740	53.3665625	1.53145620794	;
JU741	48.5381134709	0.688247132273	;
JU742	78.3095719401	1.02897848009	;
JU743	60.8256610534	1.27831950214	;
JU744	60.6087393527	1.19118364156	;
JU745	46.9047697746	1.01488988015	;
JU746	58.6766817228	1.01555217692	;
JU747	50.2497657832	0.986184138142	;
JU748	58.3868688429	1.16578539487	;
JU749	60.5722325741	1.21690404892	;
JU750	42.3367267172	1.61367827872	;
JU751	60.7087606162	1.25298324387	;
JU752	59.5556668091	1.24357649314	;
JU753	54.3130162653	1.08847710354	;
JU754	50.0158976739	1.09418427195	;
JU755	56.0055674236	1.25205243228	;
JU756	55.9291245637	1.26331523602	;
JU757	59.9255989583	0.174324490345	;
JU758	46.9560270712	1.05674736786	;
JU759	51.0560450793	1.18603477772	;
JU760	48.4528837247	1.34249863658	;
JU761	50.0982530683	1.45294192705	;
JU762	49.8296717896	1.3927575333	;
JU763	40.3433379088	1.0058457529	;
JU764	55.9016198902	1.23939267608	;
JU765	46.6647520339	0.666978123694	;
JU766	27.7042115063	1.28830360802	;
JU767	54.7749974816	0.911278015969	;
JU768	45.2562830748	1.12607560855	;
JU769	51.5909652971	0.360771212629	;
JU770	53.7864320505	0.694574657227	;
JU771	60.8159203197	0.658300598501	;
JU772	50.8077458285	1.3849252261	;
JU773	52.3627250313	0.782992163303	;
JU774	44.5842703511	0.527839049177	;
JU775	48.3892739077	0.525236074744	;
JU776	54.7028948778	1.08233819613	;
JU777	59.2720782707	0.639532714706	;
JU778	44.8385821759	0.846197765822	;
JU779	44.8391534449	0.9183122607	;
JU780	44.8098582176	0.32516929026	;
JU781	47.9298486881	0.487763945126	;
JU782	52.6847303941	0.587441004021	;
JU783	30.194315502	0.802775502142	;
JU784	54.6123946188	1.25517346302	;
JU785	51.5257515583	1.08395398741	;
JU786	50.07891454	0.918243702571	;
JU787	41.9757275548	0.895432740977	;
JU788	55.3972060667	0.77934182448	;
JU789	35.8300027127	1.4368995878	;
JU790	50.8490073461	1.34776202389	;
JU791	57.5842349886	0.846934182211	;
JU792	52.9035701995	1.2938859097	;
JU793	50.5023460396	1.14246928772	;
JU794	46.3282188443	1.04794710115	;
JU795	54.6773900195	0.906480796425	;
JU796	48.9576800512	0.908615920699	;
JU797	44.8891885824	0.794755867706	;
JU798	39.8574558738	1.51574325868	;
JU799	47.6551554105	1.0528066284	;
JU800	52.6012169657	0.408316673519	;
JU801	58.4169779644	1.03487017691	;
JU802	57.0051784604	0.955262108027	;
JU803	53.25446538	1.37101261306	;
JU804	40.1121950859	0.970585716717	;
JU805	56.0815715171	0.520885753415	;
JU806	54.9850159604	1.25417843618	;
JU807	72.9324492177	1.02803170293	;
JU808	58.2301980453	0.773216516914	;
JU809	73.1352003736	1.08572356658	;
JU810	43.6717797187	1.3175013489	;
JU811	54.5155816943	1.01572507731	;
JU812	79.9971547671	1.00383704052	;
JU813	55.8759866898	1.16371900375	;
JU814	40.8055231017	1.33093679815	;
JU815	40.9783044288	1.35161171744	;
JU816	41.5969870626	1.32251481051	;
JU817	39.9266912054	1.25035402074	;
JU818	47.0328883911	1.396843303	;
JU819	66.9010094461	1.31240041248	;
JU820	45.4405063406	1.51822198061	;
JU821	60.0920828508	0.871411584793	;
JU822	58.2738170332	0.959108820984	;
JU823	54.2207511452	0.691528054068	;

[RESERVOIRS]
;ID	Head	Pattern
R42	7056	;

[TANKS]
;ID	Elevation	InitLevel	MinLevel	MaxLevel	Diameter	MinVol	VolCurve
T215	109.988729416	3.25	1.00	10.00	30.00	0.00;
T4	117.445117061	3.25	1.00	10.00	30.00	0.00;
T42	112.497560078	3.25	1.00	10.00	30.00	0.00;
T9	129.200385271	3.25	1.00	10.00	30.00	0.00;
T27	92.7734096569	3.25	1.00	10.00	30.00	0.00;
T19	124.455253963	3.25	1.00	10.00	30.00	0.00;
T28	82.1463279965	3.25	1.00	10.00	30.00	0.00;
T120	126.841190376	3.25	1.00	10.00	30.00	0.00;
T40	119.764220602	3.25	1.00	10.00	30.00	0.00;

[PIPES]
;ID	Node1	Node2	Length	Diameter	Roughness	MinorLoss	Status