[TITLE]
Generated synthetic network;

[JUNCTIONS]
;ID	Elev	Demand	Pattern
JU1	44.059058642	0.801564285895	;
JU3	55.9356076389	0.456546185158	;
JU5	47.7046831597	1.19351474855	;
JU6	49.5938888889	1.29472850556	;
JU7	58.1944095615	0.92322097981	;
JU8	63.1015552662	1.21908374331	;
JU9	64.178001061	1.08781461266	;
JU11	62.9384005775	1.26523727958	;
JU12	49.8338522377	1.15489302369	;
JU14	59.9905015432	0.927216933545	;
JU15	62.7095989262	1.08059151204	;
JU16	55.0146412037	1.3314997741	;
JU18	45.4452083333	0.904186378367	;
JU19	56.1864660494	1.2237840436	;
JU20	52.0793567816	1.43030491448	;
JU21	53.6247858796	1.08174270187	;
JU22	46.4074395576	1.13095334013	;
JU23	44.7209322756	1.29457595548	;
JU26	59.110234375	0.709586087741	;
JU27	38.413907968	0.773022355427	;
JU28	53.3804224537	1.29433793128	;
JU29	55.8348271123	1.42647455862	;
JU30	55.7330281877	1.0249577901	;
JU31	41.479953116	0.832998806392	;
JU32	30.8673611111	1.27616759985	;
JU33	30.8673611111	1.27616759985	;
JU34	31.1690277778	1.29901287458	;
JU35	62.3896751724	1.20552941628	;
JU36	46.96	1.2974046155	;
JU37	63.4348225309	1.35316273501	;
JU38	46.280625	1.25440624476	;
JU39	43.6615895062	0.78520488196	;
JU40	61.5088888889	0.909921423586	;
JU41	41.1348292824	1.1676665936	;
JU42	35.6322992019	1.32060390956	;
JU43	47.5677834576	0.980426747816	;
JU44	45.7562065615	1.06862154647	;
JU45	28.7892355686	1.2620624195	;
JU46	52.2772307666	1.42807555363	;
JU47	47.4542708333	1.58989414662	;
JU48	36.8465835986	1.17729674038	;
JU49	43.7880144033	1.11643412037	;
JU50	43.4365471633	1.06666252309	;
JU51	44.8014956058	1.2254249017	;
JU52	49.2532129308	0.765747745315	;
JU53	59.374375	0.767905853646	;
JU54	24.4326851852	0.432525751519	;
JU55	49.7038888889	2.92706196711	;
JU56	57.7693287037	2.42710346545	;
JU57	45.0057899306	0.813168536219	;
JU58	48.15359375	0.946900131892	;
JU59	63.0245717116	0.619659898133	;
JU60	63.0437236368	1.43502769205	;
JU61	49.755788966	1.17457460836	;
JU62	49.4989361497	0.793168776805	;
JU63	46.1108372706	1.42412134432	;
JU64	67.4228395062	0.55496966902	;
JU65	54.4266203704	1.25829404464	;
JU66	52.5809397862	1.12611730599	;
JU67	55.8161226137	1.15221945569	;
JU68	40.4941790445	1.56389718	;
JU69	35.0346606445	1.049484152	;
JU70	54.3858939409	0.602448942803	;
JU71	42.2637037037	0.957954156056	;
JU72	34.8244390593	1.5794681654	;
JU73	51.5807622471	0.644190541729	;
JU74	50.951254695	0.656398136938	;
JU75	33.2524124309	1.52489508739	;
JU76	42.5310520083	1.09279437646	;
JU77	33.2277366255	1.50430042038	;
JU78	55.13832334	1.40370811628	;
JU79	54.6588888889	0.733152259583	;
JU80	45.8632254176	1.41591587484	;
JU81	47.7000462963	0.664547692329	;
JU82	29.8999175347	1.18514756296	;
JU83	57.6052777778	1.22861495988	;
JU84	56.7590625	0.793639457829	;
JU85	42.4636933621	1.24096100908	;
JU86	38.6607098765	0.95247259266	;
JU87	53.5415791377	0.430029953576	;
JU88	46.6963697595	1.00285497001	;
JU89	32.4997050754	1.41767228738	;
JU90	51.4450701678	0.934010677236	;
JU91	71.6066786024	1.08493348043	;
JU92	57.1217762587	1.42036320939	;
JU94	57.8694283492	1.09699606959	;
JU95	64.6829137731	0.801181662589	;
JU96	63.4361661884	0.831177441583	;
JU97	67.7561564429	0.595354592567	;
JU98	47.4743402778	0.93202199138	;
JU99	61.4576677563	1.07081330596	;
JU100	32.0223263889	0.363585562184	;
JU101	49.6591423799	1.32141305603	;
JU102	44.2396609761	0.991857846471	;
JU103	46.1108372706	1.42412134432	;
JU104	50.9060839994	1.53527870923	;
JU105	64.5105509742	1.16987912603	;
JU106	45.3206905864	1.18887160499	;
JU107	54.33	1.03825157428	;
JU108	57.0911213992	0.798086499146	;
JU109	57.0911213992	0.798086499146	;
JU110	43.4508544344	0.949311158257	;
JU111	50.3286178124	1.35888265825	;
JU112	51.74671875	1.09405576338	;
JU114	54.2945681424	0.759894755712	;
JU115	79.9575520833	1.20910584107	;
JU116	28.5272222222	1.55062799069	;
JU117	41.5912109911	1.04541284941	;
JU118	41.8310968846	0.923940253784	;
JU119	34.8035334862	1.39178256389	;
JU120	43.9523871528	1.53074641673	;
JU121	53.7515791377	0.828528137963	;
JU122	60.3257613671	1.37655665631	;
JU123	55.4045833333	1.08925059488	;
JU124	48.5343055556	0.892152924944	;
JU125	45.1089841715	1.01812315664	;
JU126	49.6253404707	1.10958429462	;
JU127	46.9894804527	0.735693237875	;
JU128	45.3219650206	0.757577506914	;
JU129	47.3299753515	0.7203949904	;
JU130	44.4917772634	0.771391194437	;
JU131	48.4038310185	1.27302384024	;
JU132	45.4568347051	0.764945010228	;
JU133	48.7779861111	1.39230263693	;
JU134	50.705306713	1.11903864065	;
JU135	43.5004243827	0.882312615065	;
JU136	31.7665499011	0.850735709068	;
JU137	46.465169521	1.3701199676	;
JU138	55.7752517361	0.648846740376	;
JU139	48.7853703704	1.45948850424	;
JU140	46.4007722479	1.50945770101	;
JU141	52.7305779178	1.18666507124	;
JU142	59.0723329565	0.938252598678	;
JU143	54.8689236111	0.637280857307	;
JU144	76.4258116319	0.728631907954	;
JU145	41.1772245263	0.915524260669	;
JU146	41.1139503762	1.01762848922	;
JU147	46.6230056692	0.730442413689	;
JU148	67.2619162952	0.985955670393	;
JU149	44.5021880418	1.0729829705	;
JU150	48.9660978127	1.30333549129	;
JU151	50.6976800412	0.900493432417	;
JU152	47.4359167095	1.4463426414	;
JU153	62.398587963	2.09107495713	;
JU154	55.7613917824	1.28615524485	;
JU155	36.9635800962	0.82659279644	;
JU156	50.0542582948	0.86310988996	;
JU157	49.3369857307	0.830846185628	;
JU158	59.8416261574	1.22025131819	;
JU159	67.4228395062	0.55496966902	;
JU160	40.3922254774	0.900260288927	;
JU161	40.267776331	0.924697860196	;
JU162	47.7584278549	0.979482772446	;
JU163	59.5579296875	0.998114326268	;
JU164	34.6604475309	1.45216298948	;
JU165	45.9907104283	1.35930148168	;
JU166	45.0734844393	0.817652058828	;
JU167	50.219055869	1.0864498645	;
JU168	42.635150463	0.964823486617	;
JU169	39.2882546357	1.07813591835	;
JU170	38.2839852993	1.28084172666	;
JU171	43.9100187275	0.850288836139	;
JU173	48.91472817	0.858551088381	;
JU174	31.7969589572	0.791773813771	;
JU175	31.2638425926	0.947270769241	;
JU176	34.6604475309	1.45216298948	;
JU177	50.1624565972	1.30030071745	;
JU178	67.0990612616	0.991511262717	;
JU179	33.759371142	0.693028122942	;
JU180	55.0879194327	0.667721508606	;
JU181	49.2072442284	0.772756179909	;
JU182	52.9974606339	1.12250480421	;
JU183	49.7302741689	0.68302372191	;
JU184	41.9798424276	1.01174086521	;
JU185	33.007688836	0.831882373552	;
JU186	47.4135396573	0.944750191854	;
JU187	32.0223263889	0.363585562184	;
JU188	46.6230056692	0.730442413689	;
JU189	44.294145327	0.974825240298	;
JU190	55.3327819372	0.619845683453	;
JU191	34.9440625	0.550854765577	;
JU192	34.5721582031	1.21846495931	;
JU193	30.6736458333	1.22360501189	;
JU194	49.0540833976	1.19243249567	;
JU195	47.8805180023	0.536082055784	;
JU196	56.4425134716	1.20249612742	;
JU197	45.9064351852	0.998585902787	;
JU198	35.8922048611	2.27303607067	;
JU199	32.8383143182	0.84790088771	;
JU200	42.798046875	2.60004901889	;
JU201	56.0259656214	0.582102671441	;
JU202	66.2323665929	1.31557465345	;
JU203	51.9344084362	0.277668957901	;
JU204	50.6425401074	1.04781723042	;
JU205	36.7874826389	1.21094542048	;
JU206	35.3252182698	1.1580763006	;
JU207	30.5878497942	0.946578294165	;
JU208	54.0103540176	0.786553834187	;
JU209	52.2813194444	0.941098151647	;
JU210	34.6870454915	0.720151010545	;
JU211	43.5308550347	1.09772508535	;
JU212	23.569375	1.22862075722	;
JU213	29.1096875	1.14934573091	;
JU214	36.5310373264	1.34004607382	;
JU215	33.9774963128	0.926230815902	;
JU216	42.546625434	1.28810037283	;
JU217	30.2738826497	0.962326746072	;
JU218	36.9390876374	1.51851232435	;
JU219	53.9249462891	1.39747369201	;
JU220	37.3686422164	1.30898358324	;
JU221	57.3743185764	1.19503254855	;
JU222	46.4529554922	1.15529980311	;
JU223	28.7764865451	0.773028829862	;
JU224	38.4621180556	1.78783201424	;
JU225	51.2944548575	0.357498808775	;
JU226	75.7821153429	1.14701966075	;
JU227	24.6183854167	0.804016380257	;
JU228	52.7533735613	0.984074485478	;
JU229	61.2624005487	1.27734678737	;
JU230	61.7436233282	0.741589008666	;
JU231	54.5567917142	1.35551145336	;
JU232	56.7829561043	1.03441066859	;
JU233	63.7791001425	1.13192609939	;
JU234	62.0524307548	1.25424137785	;
JU235	57.819328284	0.89045640781	;
JU236	66.3161596914	0.673962208906	;
JU237	51.2936074786	0.642233136736	;
JU238	57.2618917985	0.982113188772	;
JU239	39.7722222222	0.738219919833	;
JU240	49.1417027151	1.11911031136	;
JU241	52.0073251029	1.45271711173	;
JU242	43.2795793547	0.960907433791	;
JU243	48.3096378577	0.53604115549	;
JU244	49.633203125	1.03332040563	;
JU245	46.2629448785	0.883479554297	;
JU246	35.5541872428	1.25127524911	;
JU247	34.5650685871	1.30179334869	;
JU248	61.3464332562	1.60788347635	;
JU249	55.2358000936	1.12873755521	;
JU250	38.9365807597	1.02311161451	;
JU251	58.7733950227	1.27504186571	;
JU252	55.8454188469	1.30890522713	;
JU253	41.2530629099	0.771899432105	;
JU254	44.410284356	0.859656189551	;
JU255	57.9869777199	1.32274966295	;
JU256	27.9001041667	1.44418331741	;
JU257	40.4582115936	1.01742623986	;
JU258	63.7991753472	0.845657781686	;
JU259	27.9001041667	1.44418331741	;
JU260	56.8894701646	1.34422396684	;
JU261	29.8054451062	1.44309912379	;
JU262	40.8102267542	1.44944884729	;
JU263	31.8983664958	0.934748370725	;
JU264	44.9559658458	0.951359762302	;
JU265	54.508978166	1.2315849046	;
JU266	36.1019581887	1.04585702734	;
JU267	65.8679361041	0.89602759926	;
JU268	55.0059866295	1.26080923055	;
JU269	56.8398143594	1.21798161031	;
JU270	43.8680894489	1.17563991299	;
JU271	44.5124205755	0.956647483025	;
JU272	46.1308314043	1.00847664762	;
JU273	40.7338805776	0.866964678001	;
JU274	43.1245687753	0.835402081998	;
JU275	36.799338605	1.24326768304	;
JU276	43.0815619977	1.03864857643	;
JU277	42.4173299129	0.990758592509	;
JU278	62.9057518627	1.29114750504	;
JU279	48.9817748521	1.2297855638	;
JU280	50.6323488226	0.945895028537	;
JU281	41.3897135417	1.20053533257	;
JU282	45.6586841925	0.98276902883	;
JU283	54.891588823	0.672483051546	;
JU284	57.1366796875	0.845275303402	;
JU285	65.2953282101	0.846419345065	;
JU286	45.3929166667	1.4026304166	;
JU287	49.4619018454	0.861381862036	;
JU288	39.5094473584	1.37948287684	;
JU289	51.7143659135	0.655760859186	;
JU290	44.7443532249	1.04436178443	;
JU291	52.3499305556	1.0427074351	;
JU292	56.2330338542	1.25157178036	;
JU293	48.741840413	1.299092009	;
JU294	55.0688798014	1.24136315106	;
JU296	57.5005020456	1.3287188618	;
JU297	35.4089034636	1.42509505665	;
JU298	47.3471191391	1.02614832165	;
JU299	37.6544241898	1.69291664173	;
JU300	52.0422502524	1.16684514955	;
JU301	47.8452829218	0.992986890078	;
JU302	53.0930729577	0.99243025089	;
JU303	57.6354903638	0.923027086647	;
JU304	54.2945681424	0.759894755712	;
JU305	33.2589715149	1.44863882271	;
JU306	46.8131123007	0.935444370227	;
JU307	37.0910255112	1.28287490911	;
JU308	51.3267676183	1.14273124662	;
JU309	55.6249884259	0.365364019759	;
JU310	57.6052777778	1.22861495988	;
JU311	53.3940483941	0.834456068008	;
JU312	55.104914409	0.859457843715	;
JU313	65.2953282101	0.846419345065	;
JU314	34.2170768229	1.23148716458	;
JU315	64.5956469928	1.52995046237	;
JU316	56.3084375	0.770006849641	;
JU317	51.5977604167	1.22861248576	;
JU318	42.2279730903	0.954920494292	;
JU319	57.0219493793	1.09707098743	;
JU320	68.6662825521	0.808402602136	;
JU321	27.0077083333	1.28491755199	;
JU322	61.25480147	1.01056893185	;
JU323	39.2362013527	0.930250180515	;
JU324	35.7406678602	1.63783096833	;
JU325	38.478506489	1.28394183852	;
JU326	34.3531443617	0.864490611111	;
JU327	61.2584322555	1.32556964554	;
JU328	50.5095355898	1.36358378131	;
JU329	55.1135185185	0.653644663628	;
JU330	42.9057926633	0.617606722511	;
JU331	30.7213237311	1.45388505342	;
JU332	50.8443706597	1.86200415427	;
JU333	50.0874613293	1.08357903343	;
JU334	53.8756551676	1.0064779236	;
JU335	52.4155151443	1.46637620062	;
JU336	48.6129493454	1.23427783929	;
JU337	60.8344166144	1.14292640309	;
JU338	52.7668126688	0.97127731391	;
JU339	28.803414171	1.71156535871	;
JU340	77.4693988715	0.684697949109	;
JU341	36.4011111111	1.00699205744	;
JU342	54.8689236111	0.637280857307	;
JU343	41.7501739854	0.83857358911	;
JU344	46.0502438724	0.825788310317	;
JU345	30.5309213177	1.01710319455	;
JU346	45.7689408115	0.750899544812	;
JU347	45.9802024927	0.668378578383	;
JU348	50.2665762442	1.09932045636	;
JU349	40.9273319499	0.918881097794	;
JU350	66.2323665929	1.31557465345	;
JU351	48.46348886	2.60583178744	;
JU352	41.7451251313	0.936876687691	;
JU353	45.9064351852	0.998585902787	;
JU354	50.2123478416	1.76216100795	;
JU355	25.9568858507	1.33326703393	;
JU356	44.672757704	1.07232626561	;
JU357	67.0555194427	0.96348840516	;
JU358	33.6654699001	0.882724808081	;
JU359	33.8214831064	0.904477811992	;
JU360	33.336579368	0.857303590817	;
JU361	46.9995954139	1.66201873224	;
JU362	38.0213960021	0.853587422121	;
JU363	50.5983854167	1.1448593739	;
JU364	54.6817239719	1.00062895339	;
JU365	42.1273524306	1.13739651388	;
JU366	58.7733950227	1.27504186571	;
JU367	58.1494695216	0.848611891593	;
JU368	49.1683487654	1.05930347103	;
JU369	17.8	1.58057884575	;
JU370	51.1128125	1.11974067936	;
JU371	57.6052777778	1.22861495988	;
JU372	43.8961125478	1.08188900948	;
JU373	49.2255349794	1.03449949095	;
JU374	59.9480771665	0.778839318581	;
JU375	56.7360423599	0.571766425322	;
JU376	54.9134283774	0.950768292753	;
JU378	67.0990612616	0.991511262717	;
JU379	60.379020952	0.635680434957	;
JU380	52.7403496893	0.631195735347	;
JU381	49.904191851	0.686469620682	;
JU382	49.1766923651	0.996057490885	;
JU383	45.9173795573	0.749368331499	;
JU384	50.1690960434	0.775676971112	;
JU385	47.8820952691	0.805454402458	;
JU386	49.8122976145	0.711580850705	;
JU387	50.8018514589	0.876306904284	;
JU388	50.6493280786	0.79860733262	;
JU389	50.9018564839	0.890674072612	;
JU390	33.610231803	1.43785357965	;
JU391	52.9974606339	1.12250480421	;
JU392	55.3956944444	0.862216715014	;
JU393	54.4969130452	1.31941842154	;
JU394	47.8421462674	0.994967126824	;
JU395	60.3909009693	1.30857712902	;
JU396	50.0935014789	0.735648361228	;
JU397	37.6387580108	1.43569523138	;
JU398	55.6790083068	0.695160904931	;
JU399	50.2679471491	1.17245341951	;
JU400	51.4849378424	1.11525907233	;
JU401	46.9995954139	1.66201873224	;
JU402	58.3062384259	0.581808666111	;
JU403	54.891588823	0.672483051546	;
JU404	51.994842464	1.07969828122	;
JU405	47.3217990451	0.769494472852	;
JU406	56.9294097222	0.976314429343	;
JU407	37.4334049479	1.21917774451	;
JU408	50.2490289432	1.14725788957	;
JU409	53.2219021318	1.22688230051	;
JU410	55.3501274354	0.888972715043	;
JU411	48.6538320187	0.604804026499	;
JU412	50.6559885689	1.33489701046	;
JU413	49.617336706	0.917895192944	;
JU414	50.7227495415	1.74689291157	;
JU415	48.7705475798	1.48587316041	;
JU416	46.9083216435	1.19447312889	;
JU417	50.7227495415	1.74689291157	;
JU418	33.2899065545	1.18933624252	;
JU419	45.7789192708	1.19357297881	;
JU420	47.1227231825	1.11095042259	;
JU421	45.8951292101	0.964462071976	;
JU422	37.513263482	1.10332603131	;
JU423	33.0140423075	0.7949708723	;
JU424	34.283746992	0.801208276963	;
JU425	45.7530664295	0.991014437585	;
JU426	59.2089037445	1.13330622629	;
JU427	28.1738777279	1.19717315348	;
JU428	56.6236171795	0.909459249983	;
JU429	49.3173658005	1.06805108107	;
JU430	47.9536188272	1.09061188292	;
JU431	66.835771778	0.836884864574	;
JU432	61.4989583333	0.509972668594	;
JU433	40.8596354167	1.81751069072	;
JU434	24.4346064815	1.29075085342	;
JU435	34.5636985597	0.950560921212	;
JU436	47.8346417127	0.833347165748	;
JU437	52.2067920927	0.873203152066	;
JU438	40.3725776294	1.00941997931	;
JU439	44.410284356	0.859656189551	;
JU440	47.0016855363	1.19069527435	;
JU441	31.5294495885	1.34427092856	;
JU442	30.559385556	0.981840744356	;
JU443	60.2509027778	1.66938539709	;
JU444	25.9789236111	1.17199250109	;
JU445	37.3098726852	0.974261233515	;
JU446	33.60489511	1.07970439824	;
JU447	39.548751286	0.778462731407	;
JU448	41.072132282	0.799234222628	;
JU449	42.6469315027	0.881390986305	;
JU450	43.2275677566	0.938141418839	;
JU451	41.1115370611	0.906289598233	;
JU452	40.8596354167	1.81751069072	;
JU453	41.640226237	1.31415448718	;
JU454	59.8424314442	1.2573280418	;
JU455	32.1824871123	1.15201895619	;
JU456	54.6358198155	0.774284468422	;
JU457	50.7933157301	0.847055387354	;
JU458	47.169380561	0.944705280922	;
JU459	59.908286698	1.26474345107	;
JU460	56.9060591126	0.882611173171	;
JU461	52.0052534642	1.21372356585	;
JU462	55.364682395	0.997358141414	;
JU463	63.0537754765	0.832700230397	;
JU464	55.490407966	0.625568259918	;
JU465	59.9025983796	0.545890667352	;
JU466	54.3050795718	1.21691488944	;
JU467	47.53395388	0.91598354719	;
JU468	52.7190653801	1.1944295252	;
JU469	33.2337669655	0.828288146234	;
JU470	34.2170768229	1.23148716458	;
JU471	48.104087979	1.16964358618	;
JU472	59.3000390625	1.6684781163	;
JU473	40.556828476	1.12438266257	;
JU474	32.1824871123	1.15201895619	;
JU475	51.5659967267	1.12863138518	;
JU476	46.1641974693	1.39301792122	;
JU477	37.0865407986	1.23587967485	;
JU478	37.4640595261	0.490596142348	;
JU479	50.3730078125	1.07653054249	;
JU480	46.3658202556	1.20670721429	;
JU481	53.5716305989	0.874433123483	;
JU482	58.23596517	0.939365934567	;
JU483	31.6627640336	1.32112530859	;
JU484	52.1680321505	0.950739337571	;
JU485	30.7782118056	1.28705848563	;
JU486	37.6872885622	0.789705366385	;
JU487	38.3297708561	0.869559711387	;
JU488	55.8454188469	1.30890522713	;
JU489	61.7625991934	1.35562667807	;
JU490	50.3487537905	0.766762504018	;
JU491	58.3060703245	1.13822519556	;
JU492	66.2323665929	1.31557465345	;
JU493	39.6702333301	0.819035243188	;
JU494	66.3961252572	0.685091518185	;
JU495	54.1788035301	1.30224733681	;
JU496	54.6454451112	1.23116199575	;
JU497	61.918828125	1.52670950148	;
JU498	54.8431690357	1.34181446843	;
JU499	63.7993836538	1.11276175024	;
JU500	63.7244757758	1.2175582028	;
JU501	60.5344407974	1.53593548363	;
JU502	60.6310441409	1.29795175783	;
JU503	48.7449627504	1.01342115441	;
JU504	44.8653153935	1.31811101254	;
JU505	51.0027692758	0.951398895225	;
JU506	56.7795459783	0.960289560612	;
JU507	45.9907104283	1.35930148168	;
JU508	49.5074074074	1.05944450846	;
JU509	40.5276302083	1.11102383114	;
JU510	55.7333398438	0.941763438841	;
JU511	51.1085716735	1.10726888377	;
JU512	40.4599278429	1.00564206004	;
JU513	55.0316699219	0.990007506561	;
JU514	53.8673263889	1.50315983176	;
JU515	58.8646469907	1.51075436299	;
JU516	53.9141707242	0.796890626673	;
JU517	52.8692233211	0.982463674521	;
JU518	48.0855514564	1.07554626897	;
JU519	56.1659678819	0.613058901201	;
JU520	43.1909762536	0.953898398229	;
JU521	54.6869694412	1.30019203635	;
JU522	59.8098529279	1.38167563708	;
JU523	49.904191851	0.686469620682	;
JU524	45.7378979794	0.937011203348	;
JU525	34.2432458848	1.51219109028	;
JU526	34.714748898	1.44110447999	;
JU527	37.3743747827	1.31433647384	;
JU528	45.5108916986	1.09133693195	;
JU529	62.6433144011	1.04622642001	;
JU530	59.91723993	1.60220679997	;
JU531	43.6177893519	1.93620884194	;
JU532	61.2057132109	0.692868017869	;
JU533	45.8912769459	0.74719164563	;
JU534	52.5906877632	1.06161085613	;
JU535	51.499990154	1.5874842326	;
JU536	61.9934264016	1.02879808148	;
JU537	34.8679952739	0.934198627186	;
JU538	54.5886390416	1.08268418811	;
JU539	38.2674979728	0.870341249361	;
JU540	45.0602191438	0.835661792366	;
JU541	51.0233333333	0.757086249833	;
JU542	31.9176080426	0.61150831337	;
JU543	59.695398017	1.21734650843	;
JU544	42.0852138705	0.966813600547	;
JU545	58.0190421918	1.20894198131	;
JU546	47.9811605387	0.846354496399	;
JU547	61.8866467335	1.46286163624	;
JU548	56.4510051209	0.592412663262	;
JU549	61.2040848984	0.995507838321	;
JU550	67.4156903252	1.67502192211	;
JU551	66.0745314585	1.6120950327	;
JU552	64.1510848129	1.5230248454	;
JU553	53.0541843895	1.17283413126	;
JU554	43.5004243827	0.882312615065	;
JU555	60.8215152292	1.39727063918	;
JU556	45.7635488502	0.763161437699	;
JU557	50.3934923295	0.874332393032	;
JU558	46.9383551776	0.770339003532	;
JU559	32.968591821	0.625202288659	;
JU560	67.3704863175	0.982251942177	;
JU561	24.4346064815	1.29075085342	;
JU562	33.7883916324	0.949781737525	;
JU563	36.4793449931	0.95174650369	;
JU564	66.9789237515	0.849286928122	;
JU565	32.0790972222	0.54247144033	;
JU566	37.6501070602	0.946532173665	;
JU567	28.2215740741	1.00458683159	;
JU568	23.343125	1.53943391794	;
JU569	30.1819865813	1.45158234819	;
JU570	35.5206278935	1.18479621779	;
JU571	59.91723993	1.60220679997	;
JU572	38.413907968	0.773022355427	;
JU573	59.374375	0.767905853646	;
JU574	54.3637687275	0.846574619971	;
JU575	41.9001725486	0.929633604857	;
JU576	26.5552439598	1.43483114958	;
JU577	30.7213237311	1.45388505342	;
JU578	41.6413621841	0.989427623746	;
JU579	51.203987297	1.39459378636	;
JU580	57.4251207731	1.25814313562	;
JU581	42.6089733209	1.14842038993	;
JU582	50.9846538628	1.09527423852	;
JU583	55.8046485246	0.544397139406	;
JU584	28.7764865451	0.773028829862	;
JU585	58.1463191719	1.2009352759	;
JU586	42.3018793403	1.68846646173	;
JU587	60.457808642	2.26045063156	;
JU588	51.3626407579	0.649211438802	;
JU589	57.2459627461	1.2874537464	;
JU590	58.4754528156	1.41087506886	;
JU591	34.14806151	1.06043932713	;
JU592	49.9437665871	1.07991601981	;
JU593	32.0008024691	1.25551328671	;
JU594	53.8360722451	1.21164606039	;
JU595	39.1568426589	1.08176831893	;
JU596	50.9010728643	0.934430407622	;
JU597	32.2720410156	1.67469816352	;
JU598	41.1543116873	0.88467569882	;
JU599	41.3703088596	0.824464190313	;
JU600	48.6538320187	0.604804026499	;
JU601	29.0347265173	1.6761115351	;
JU602	39.6669829644	1.27016256238	;
JU603	38.9279746626	1.27766363998	;
JU604	38.5944096285	1.29204334623	;
JU605	26.7355046779	1.56334306474	;
JU606	29.0347265173	1.6761115351	;
JU607	35.685748404	1.23086632118	;
JU608	66.8334462389	0.95474507061	;
JU609	43.4456580142	0.879801023075	;
JU610	77.4693988715	0.684697949109	;
JU611	59.8225348349	1.28431011433	;
JU612	65.8804355322	1.60338060007	;
JU613	36.8054589392	1.7201951191	;
JU614	27.4418250516	1.55809524981	;
JU615	58.3747820216	0.860428195687	;
JU616	55.2742308607	1.192208964	;
JU617	60.8344166144	1.14292640309	;
JU618	45.5426370492	0.86112702818	;
JU619	39.3568770408	0.832583192775	;
JU620	44.558203125	0.456167405816	;
JU621	39.3251270084	0.999278540758	;
JU622	48.432754643	1.26771420691	;
JU623	38.7809669777	1.25051720548	;
JU624	47.8452829218	0.992986890078	;
JU625	56.1634192838	0.576363203612	;
JU626	43.9375737847	0.895878490269	;
JU627	49.8363267341	1.07444983307	;
JU628	57.0295342507	0.581740142065	;
JU629	55.3380883369	0.652335711533	;
JU630	49.5164379313	0.695320281778	;
JU631	56.0997046639	0.61223037891	;
JU632	50.1488011384	1.18784677656	;
JU633	54.740947576	0.625851325046	;
JU634	55.0100080574	0.755209248584	;
JU635	48.8416593927	1.12358328318	;
JU636	31.3857907271	1.24776170996	;
JU637	52.1845113169	1.46920921954	;
JU638	55.6249884259	0.365364019759	;
JU639	77.1215364583	0.699342602057	;
JU640	63.0245717116	0.619659898133	;
JU641	45.3074544271	1.12472808202	;
JU642	59.2339426601	0.63131094654	;
JU643	61.6636083507	1.23800780992	;
JU644	58.8263888889	0.847248610049	;
JU645	49.2668875386	1.28343862264	;
JU646	58.0571267361	0.93431385704	;
JU647	51.2640089881	1.01528331605	;
JU648	42.8454435746	1.16656886451	;
JU649	35.159242434	0.836060643139	;
JU650	40.3459485791	1.26769069885	;
JU651	41.4787807436	1.03563012784	;
JU652	50.5869786576	0.87433390519	;
JU653	59.1903379877	1.24411368547	;
JU654	63.0537754765	0.832700230397	;
JU655	33.0688535237	0.937508067395	;
JU656	33.6378234549	1.41576947697	;
JU657	51.2871200248	1.42502537884	;
JU658	51.1569477265	0.65280478787	;
JU659	37.241127594	1.37385120792	;
JU660	36.6775292755	1.2280578061	;
JU661	28.9995896304	1.28087968655	;
JU662	27.9382063895	1.2490315884	;
JU663	32.7714940317	1.36782056239	;
JU664	35.6122381902	0.912159038045	;
JU665	41.8551525259	1.24896305048	;
JU666	28.0560420587	1.22310237094	;
JU667	34.0896475802	1.2743055241	;
JU668	43.6048666838	0.863960382917	;
JU669	34.9966301449	1.41915858287	;
JU670	54.6278537226	0.517155802689	;
JU671	35.0914030082	1.33716554134	;
JU672	43.9370601852	1.17016069358	;
JU673	61.59875565	1.0121529599	;
JU674	35.6046731429	1.198230263	;
JU675	44.7443532249	1.04436178443	;
JU676	44.3554593758	1.00754173039	;
JU677	42.7547258165	1.08253376837	;
JU678	59.0975948582	1.23677636295	;
JU679	41.0209357719	0.985324336241	;
JU680	63.0245717116	0.619659898133	;
JU681	51.5659967267	1.12863138518	;
JU682	53.4603922325	0.968984605327	;
JU683	55.9765093996	1.20824304817	;
JU684	33.962401799	0.718097018247	;
JU685	35.5206278935	1.18479621779	;
JU686	50.6603532588	0.534791669249	;
JU687	51.7588107639	1.20222377614	;
JU688	46.8552255188	1.17384863786	;
JU689	59.7631255463	0.946261848982	;
JU690	58.1128510316	0.96287358422	;
JU691	44.2562281446	0.839617151325	;
JU692	49.1766923651	0.996057490885	;
JU693	56.6400156328	1.05424261768	;
JU694	43.6177893519	1.93620884194	;
JU695	40.4987095874	1.25863767094	;
JU696	43.6759953704	1.18419623409	;
JU697	58.8263888889	0.847248610049	;
JU698	62.1427214584	0.625000077074	;
JU699	67.0555194427	0.96348840516	;
JU700	42.9055941358	1.15197847788	;
JU701	60.0598431547	1.30002097328	;
JU702	50.6180919925	1.0209291891	;
JU703	43.7916513784	0.988299902425	;
JU704	42.6771283769	1.28120560536	;
JU705	58.7614351584	1.52582030326	;
JU706	59.1135686728	2.3437770485	;
JU707	58.0754233201	1.08280205638	;
JU708	44.4837858432	1.16571828782	;
JU709	36.4011111111	1.00699205744	;
JU710	56.7360423599	0.571766425322	;
JU711	54.8409793003	0.549180695921	;
JU712	49.4853730897	1.12531345763	;
JU713	33.8192332861	1.45698928588	;
JU714	62.9384005775	1.26523727958	;
JU715	55.4826003527	0.673258446342	;
JU716	49.2697282437	1.15887297665	;
JU717	55.4130653356	0.953714352139	;
JU718	52.4269055706	0.66202194366	;
JU719	50.2040330547	0.75418822003	;
JU720	60.9827088156	0.514446898273	;
JU721	56.3187256568	0.549249315976	;
JU722	44.2356840007	0.936575571629	;
JU723	55.0468445001	0.893258409863	;
JU724	58.3954398227	1.20859308171	;
JU725	55.1954085418	1.23354032136	;
JU726	51.267940146	0.971570128506	;
JU727	59.9358257385	1.34138097311	;
JU728	38.9365807597	1.02311161451	;
JU729	52.9425640861	0.963672443913	;
JU730	61.500445306	1.4005846933	;
JU731	54.4236200855	0.84013948827	;
JU732	38.1071859628	1.234847475	;
JU733	42.1512427662	1.23419758179	;
JU734	38.5719849537	1.6841780839	;
JU735	39.2207717858	1.47896266335	;
JU736	43.6057042101	2.25218934723	;
JU737	35.1338683128	0.950764120607	;
JU738	39.7055922671	1.81829325183	;
JU739	46.1641974693	1.39301792122	;
JU740	46.4152642747	1.00824723629	;
JU741	43.5386001662	1.25640877847	;
JU742	34.7794035132	1.03510046821	;
JU743	68.1337188947	0.97444161307	;
JU744	53.4296089463	1.08049185276	;
JU745	67.0555194427	0.96348840516	;
JU746	57.4947311372	1.25657635281	;
JU747	63.0537754765	0.832700230397	;
JU748	62.6462503938	0.829147559836	;
JU749	34.5721582031	1.21846495931	;
JU750	50.5335987154	1.40284023925	;
JU751	50.6821862805	1.07739173825	;
JU752	54.242474033	1.24930011099	;
JU753	55.1618159464	1.21981966794	;
JU754	50.0063887279	1.05039233543	;
JU755	48.6897971797	1.03173686181	;
JU756	53.5358119514	1.23732414737	;
JU757	62.1732692456	0.977279997957	;
JU758	49.2945074053	0.856354310992	;
JU759	35.6322992019	1.32060390956	;
JU760	41.3830304516	0.961100511966	;
JU761	36.9390876374	1.51851232435	;
JU762	48.1280925522	0.836788138122	;
JU763	49.2932369666	0.743060653578	;
JU764	48.82162147	0.802418001651	;
JU765	49.3815375121	0.964012023078	;
JU766	52.0671081334	0.64612067475	;
JU767	54.6278537226	0.517155802689	;
JU768	32.490311252	0.84037540298	;
JU769	46.5193663049	0.789554912214	;
JU770	58.0571267361	0.93431385704	;
JU771	54.2924053453	0.557721766858	;
JU772	38.9406494793	1.13130271326	;
JU773	45.9064351852	0.998585902787	;
JU774	58.4268783904	0.62445322011	;
JU775	40.9253678838	0.75801450057	;
JU776	55.0695102318	0.747710680173	;
JU777	49.0009623193	1.05762795598	;
JU778	45.7788637314	0.759800967115	;
JU779	47.4726554528	1.04628649486	;
JU780	36.8960435153	0.675393878951	;
JU781	36.9437759362	0.894797050865	;
JU782	50.8633372175	1.04991791234	;
JU783	53.8380689715	0.723664365722	;
JU784	46.342109797	1.05344601451	;
JU785	46.1353045256	1.07901167069	;
JU786	38.7153400383	0.839454564052	;
JU787	38.174471856	0.929116582635	;
JU788	43.8795990066	1.07699813652	;
JU789	52.8411111111	0.745119254708	;
JU790	45.5232118056	1.18469553461	;
JU791	46.4592788352	0.719358790957	;
JU792	50.1050115741	1.07755904168	;
JU793	47.9382789876	1.07893082369	;
JU794	53.8673263889	1.50315983176	;
JU795	60.7149721147	1.24096563266	;
JU796	51.0246628499	1.1916953105	;
JU797	42.410581647	0.886887674285	;
JU798	48.0921061303	1.20800281142	;
JU799	34.8040993566	1.41383050677	;
JU800	33.505324544	0.840030529747	;
JU801	45.4287888683	0.778828038372	;
JU802	42.7417855044	0.607090953193	;
JU803	44.7922383036	1.17987920704	;
JU804	45.8214397632	0.754477703092	;
JU805	49.9737197487	0.623518581618	;
JU806	51.057870424	1.38390396502	;
JU807	53.081493095	1.29770171339	;
JU808	61.5877885883	0.778713258944	;
JU809	53.8360722451	1.21164606039	;
JU810	61.3464332562	1.60788347635	;
JU811	61.7255470789	1.04980569372	;
JU812	51.9502995113	0.547879444949	;
JU813	24.4346064815	1.29075085342	;
JU814	45.413625799	1.08400926861	;
JU815	65.3293215917	0.887817263551	;
JU816	37.4642704608	1.04077583436	;
JU817	39.0748685224	1.06013395082	;
JU818	43.7422821121	1.01112752846	;
JU819	36.8602933738	1.35399556333	;
JU820	47.9077985833	1.15667747812	;
JU821	33.4356111252	1.00359440764	;
JU822	42.635150463	0.964823486617	;
JU823	46.437894806	1.05098243009	;
JU824	20.5715625	1.56000638184	;
JU825	34.7797033574	1.01003919384	;
JU826	43.7641561096	0.843331870547	;
JU827	49.3801517904	0.540000885408	;
JU828	45.6981603033	0.76406703657	;
JU829	42.6515081205	0.889797832277	;
JU830	50.413964785	0.534845324004	;
JU831	45.0092807999	1.72283327148	;
JU832	30.3601718027	0.924936703799	;
JU833	45.2473748587	1.2277687377	;
JU834	36.5998027151	1.33967978762	;
JU835	34.4937486966	1.27784475289	;
JU836	32.7791938532	1.12510369801	;

[RESERVOIRS]
;ID	Head	Pattern
R377	7056	;

[TANKS]
;ID	Elevation	InitLevel	MinLevel	MaxLevel	Diameter	MinVol	VolCurve
T24	98.4953230382	3.25	1.00	10.00	30.00	0.00;
T4	110.107727804	3.25	1.00	10.00	30.00	0.00;
T113	111.311621376	3.25	1.00	10.00	30.00	0.00;