[TITLE]
Generated synthetic network;

[JUNCTIONS]
;ID	Elev	Demand	Pattern
JU1	41.7078240741	1.1156746048	;
JU2	52.508117284	0.947827301601	;
JU3	45.2497067901	0.809751531151	;
JU4	49.0752932099	1.10258413463	;
JU5	46.6738271605	0.956051884063	;
JU6	40.2911093964	1.04698049688	;
JU7	44.3222209362	1.08310612176	;
JU8	50.2476851852	1.20936705144	;
JU10	49.0722890947	0.80493910712	;
JU11	38.239218107	1.58196141673	;
JU13	39.7212414266	1.56341677179	;
JU14	41.7178292181	1.45920972183	;
JU15	46.857668457	0.808877720303	;
JU16	37.3076680384	1.49136723177	;
JU17	38.5303360768	1.47431455992	;
JU18	37.3076680384	1.49136723177	;
JU19	45.3437072754	0.833447924932	;
JU20	27.3898958333	0.827147700477	;
JU21	31.1507195216	0.776301632238	;
JU23	41.1069444444	0.442586403108	;
JU24	42.7008436214	0.45262783434	;
JU25	41.9038940329	0.447607118724	;
JU26	35.472976466	1.29496851954	;
JU27	49.7344444444	0.425952033326	;
JU28	40.0663194444	0.697236047764	;
JU29	56.8628587963	1.4431262452	;
JU30	56.1263483796	1.49205145263	;
JU31	59.4081947659	1.32714799836	;
JU32	56.7700053584	1.32017993242	;
JU33	52.133900463	0.924026799568	;
JU34	52.1300681584	1.27195559871	;
JU35	58.5009465021	1.27412541552	;
JU36	47.7927464849	1.22152023563	;
JU37	56.107337963	1.64912166413	;
JU38	39.2844521605	1.55109142718	;
JU39	45.4510416667	1.26850146642	;
JU40	49.9694753086	1.23157949608	;
JU41	39.5560628858	1.52133348804	;
JU42	39.6918682485	1.50645451847	;
JU43	49.5946103395	1.27002413341	;
JU44	43.5754205247	1.14116397973	;
JU45	45.4510416667	1.26850146642	;
JU46	50.7834499314	1.18206911189	;
JU47	41.4708470508	1.47560123128	;
JU48	59.2856674383	1.24053318612	;
JU49	52.905352652	1.31237702852	;
JU50	60.9490192044	1.38627863738	;
JU51	58.3174049307	1.37135246283	;
JU52	61.0978429355	1.41540172258	;
JU53	45.5719111035	1.21914448197	;
JU54	50.2231035665	0.932530388401	;
JU56	40.8893184156	1.1077027194	;
JU57	40.6935288066	1.16939725178	;
JU58	34.2532038752	1.525677766	;
JU59	33.4546684242	1.3470539607	;
JU60	39.9817386831	1.56556634981	;
JU61	39.9817386831	1.56556634981	;
JU62	57.9488168724	1.08503281136	;
JU63	41.243755144	1.06960752469	;
JU64	53.6670833333	0.682313581688	;
JU65	38.9435951075	1.03056269002	;
JU66	51.8303317901	1.09963719857	;
JU67	86.8092708333	1.72167455521	;
JU68	61.3028125	1.19307664656	;
JU69	59.39671875	1.05089102753	;
JU70	53.745625	2.14872935883	;
JU71	59.39671875	1.05089102753	;
JU72	84.3860416667	1.15645574517	;
JU73	62.3887847222	1.26379538888	;
JU74	59.0081134259	1.13818149913	;
JU75	44.9074588477	0.870750459493	;
JU76	60.7391460905	1.2698347911	;
JU78	48.754060571	0.771625530353	;
JU79	48.754060571	0.771625530353	;
JU80	56.540462963	0.663045881313	;
JU81	52.5022961677	0.575966767064	;
JU82	48.7088874421	0.53127063672	;
JU83	50.1683499711	0.584497941541	;
JU84	52.1979861111	0.730987619345	;
JU85	59.0367361111	0.686949907391	;
JU86	54.1187030607	1.46053863142	;
JU87	61.9767881944	0.651562914357	;
JU88	51.8303317901	1.09963719857	;
JU89	45.4054571533	0.841139263204	;
JU90	65.6513915681	0.815940483986	;
JU91	56.5155266204	1.53810981739	;
JU92	54.6730208333	0.928457469844	;
JU93	55.7679398148	1.18579185752	;
JU94	69.9336111111	1.19715243341	;
JU95	70.830941358	1.22924131248	;
JU96	61.5107494213	0.642735096243	;
JU97	75.5915625	1.43968901827	;
JU98	75.5915625	1.43968901827	;
JU99	54.175	1.08375467944	;
JU100	58.891875	1.16067345879	;
JU101	67.24171875	1.30018123853	;
JU102	36.3206770833	1.27539300889	;
JU103	65.1404996142	1.34531282873	;
JU104	58.891875	1.16067345879	;
JU105	56.9259722222	1.20296601771	;
JU106	45.349953275	0.970199166767	;
JU107	44.1529369213	1.43380847663	;
JU108	35.6526558451	1.55856992825	;
JU109	44.7913465935	1.413696702	;
JU110	40.8497839506	1.51238803582	;
JU111	42.5843103185	1.31417131617	;
JU112	38.4703840878	1.6020966579	;
JU113	45.8808581009	1.46887797314	;
JU114	47.227697569	1.46499993765	;
JU115	41.0718155261	1.5586459151	;
JU116	59.7076239331	1.3933770927	;
JU117	37.6625097006	1.54216184055	;
JU118	56.7700053584	1.32017993242	;
JU119	37.2243505658	0.723733994584	;
JU120	40.7727083333	0.583866670781	;
JU121	40.7727083333	0.583866670781	;
JU122	35.4503600823	1.02997463508	;
JU123	47.8236111111	1.22981440512	;
JU124	39.5885493827	1.3982217627	;
JU125	50.9015037723	1.22579298652	;
JU126	35.6486259717	1.17123447831	;
JU127	61.4258307613	0.9079297645	;
JU128	36.0679468879	0.724594779291	;
JU129	45.3258342978	0.97360520677	;
JU130	58.5959259259	1.2085329487	;
JU131	67.1103257888	1.03745749104	;
JU132	45.3282928241	1.2369585638	;
JU133	37.2127777778	1.49552121817	;
JU134	46.2232150206	1.23530113416	;
JU135	46.2232150206	1.23530113416	;
JU136	51.3374717078	1.18762927509	;
JU137	40.8551080247	1.33591843681	;
JU138	54.2337287809	1.25608107932	;
JU139	44.4518566744	1.18906127176	;
JU140	60.5649143376	1.33063350219	;
JU141	55.3828283608	0.560691727053	;
JU142	60.4663132883	1.18857042168	;
JU143	55.0648934042	0.366212737959	;
JU144	44.3352932099	0.462279835568	;
JU145	47.4729883973	0.491866465654	;
JU146	56.6807775393	1.35040582722	;
JU147	58.6637747438	1.34243756941	;
JU148	58.6364888735	1.34115896627	;
JU149	35.7020068158	1.27132201745	;
JU150	43.3707021605	1.21495098953	;
JU151	40.5157111626	0.988761358716	;
JU152	76.4683585177	1.02431097841	;
JU153	53.2776755401	1.1831808257	;
JU154	61.0186805556	1.23077601365	;
JU155	58.5009465021	1.27412541552	;
JU156	43.1290015218	1.06842962094	;
JU157	47.0131139816	1.4429703138	;
JU158	55.7598574942	1.43663812152	;
JU159	50.2402893519	0.487292479369	;
JU160	50.5139133766	0.925920493063	;
JU161	54.254064429	0.951487084565	;
JU162	54.2590972222	0.696106265854	;
JU163	57.6519039352	0.665006771991	;
JU164	61.0447106481	0.633907278128	;
JU165	47.7891222994	1.2483953575	;
JU166	56.303125	0.811216946969	;
JU167	48.9076453189	1.15533436855	;
JU168	41.2139437586	0.978293206613	;
JU169	45.4526157407	0.538537425324	;
JU170	56.8200024113	1.41966464054	;
JU171	56.5155266204	1.53810981739	;
JU172	63.1862811857	1.02141255517	;
JU173	43.4337962963	0.78682710488	;
JU174	41.271946052	1.25534707152	;
JU175	36.0862076823	1.15551921165	;
JU176	36.2034423828	1.21545611027	;
JU177	40.7458324178	0.998329237425	;
JU178	44.2488631687	0.766910371125	;
JU179	68.3211111111	1.36330490369	;
JU180	34.9392592593	1.30777507187	;
JU181	61.0186805556	1.23077601365	;
JU182	34.9392592593	1.30777507187	;
JU183	52.1979861111	0.730987619345	;
JU184	34.0961111111	1.33699743583	;
JU185	35.1269388717	0.759820664971	;
JU186	48.9043385899	0.597766814788	;
JU187	51.6922890947	1.13246750019	;
JU188	49.7091259833	0.761843653926	;
JU189	32.7247993827	1.45181327806	;
JU190	41.7577692044	0.991936464892	;
JU191	35.8980298354	1.38201486697	;
JU192	43.6031708676	0.900039863089	;
JU193	52.9513175154	1.03139521604	;
JU194	45.4451038452	1.2144202549	;
JU195	61.9230169753	0.901271306558	;
JU196	34.5080059252	1.54530317416	;
JU197	35.2939426155	1.23950477509	;
JU198	37.8171972641	1.56206813903	;
JU199	29.4088723137	1.4116680337	;
JU200	39.250629382	1.08574346811	;
JU201	33.1898446947	1.5051803787	;
JU202	65.0000918424	1.02253665671	;
JU203	60.9329411008	1.06711265634	;
JU204	50.4202759917	1.18517352412	;
JU205	65.0000918424	1.02253665671	;
JU206	39.5355371245	1.10874917281	;
JU207	54.9069097222	0.40025186995	;
JU208	55.3218891223	1.13655831253	;
JU209	55.3218891223	1.13655831253	;
JU210	48.023866272	0.785844494572	;
JU211	47.4407673645	0.797361107438	;
JU212	43.3707021605	1.21495098953	;
JU213	45.3745822144	0.837293594068	;
JU214	28.336875	0.865542580269	;
JU215	31.8922569444	0.978890675929	;
JU216	55.9522412742	0.774263656562	;
JU217	47.2198958333	0.633090126234	;
JU218	43.5194234396	0.866956233629	;
JU219	38.354121442	0.92702786851	;
JU220	62.2494791667	0.550709302833	;
JU221	83.4452083333	1.37600084135	;
JU222	79.4187847222	1.36164002676	;
JU223	80.3717013889	1.2725072864	;
JU224	78.134839892	1.23437105783	;
JU225	86.9502083333	1.23722747598	;
JU226	83.5890393519	1.29524520124	;
JU227	70.891335841	1.38121802595	;
JU228	40.8280606996	1.19164796602	;
JU229	75.1248630401	1.29544066962	;
JU230	60.0691213349	0.647216382121	;
JU231	58.7098487273	0.755784842718	;
JU232	54.6898148148	1.53760559366	;
JU233	61.4571990741	0.591649496541	;
JU234	57.571724537	0.614819670124	;
JU235	44.7994082219	0.868554768946	;
JU236	60.0835239007	0.673717169629	;
JU237	80.7200868056	1.23724514219	;
JU238	55.0648934042	0.366212737959	;
JU239	47.1643852881	0.181651934127	;
JU240	51.8885054977	1.37779610451	;
JU241	44.7304286694	1.15846456814	;
JU242	37.2127777778	1.49552121817	;
JU243	38.4268878601	1.44232029105	;
JU244	35.7127469136	1.38818085462	;
JU245	56.9259722222	1.20296601771	;
JU246	46.2803703704	1.02564016451	;
JU247	40.4923191015	1.10818887433	;
JU248	37.8549862826	1.25485279433	;
JU249	39.6580521262	1.16449375241	;
JU250	44.8252568801	1.16003234278	;
JU251	41.7078240741	1.1156746048	;
JU252	55.478912037	1.00910222493	;
JU253	43.7628125	0.323766592612	;
JU254	36.3612262088	0.932833101578	;
JU255	54.5103722994	0.991622610265	;
JU256	46.2358499711	0.427518614666	;
JU257	34.9079473165	1.13994353114	;
JU258	28.1108333333	0.869349359046	;
JU259	26.5929166667	1.02160991995	;
JU260	42.0332986111	0.784953654814	;
JU261	40.2370533265	0.850760198972	;
JU262	34.4650231481	0.617119820912	;
JU263	34.9576916152	0.823547227997	;
JU264	46.8201234568	1.10573296182	;
JU265	26.7008333333	1.28372059499	;
JU266	26.7008333333	1.28372059499	;
JU267	31.299693287	1.27048770501	;
JU268	37.1429153807	1.26458149701	;
JU269	37.2712701475	1.28530767539	;
JU270	31.0593595679	1.03645630468	;
JU271	38.738514982	1.16461888685	;
JU272	29.7938194444	1.02030878479	;
JU273	32.0270408951	1.02773197715	;
JU274	45.5719111035	1.21914448197	;
JU275	39.3911111111	1.12857559132	;
JU276	42.2581044239	1.10853553649	;
JU277	46.5798040981	1.1671642615	;
JU278	35.6043608539	0.974747287486	;
JU279	42.0861629801	0.997926029251	;
JU280	28.7741550926	0.887790709737	;
JU281	34.046211777	0.961603073456	;
JU282	30.8528896605	0.948524020531	;
JU283	71.5560416667	0.376509122516	;
JU284	68.8679166667	0.365370793164	;
JU285	66.9027604167	0.463609212674	;
JU286	80.3125	0.562990817313	;
JU287	79.7314496528	0.65312528585	;
JU288	46.857668457	0.808877720303	;
JU289	58.9338624186	1.0183837873	;
JU290	52.3839889028	0.938703788814	;
JU291	53.4808043981	0.976642643712	;
JU292	46.0187337106	0.462267895156	;
JU293	48.5463278035	0.878385766695	;
JU294	64.8636796982	1.27054753958	;
JU295	64.8636796982	1.27054753958	;
JU296	29.4088723137	1.4116680337	;
JU297	47.8464525463	0.512914952346	;
JU298	60.3625	0.999905047875	;
JU299	58.3328125	0.905560997422	;
JU300	55.7175900206	0.691833556868	;
JU301	44.8507394547	0.652723898224	;
JU302	50.1683499711	0.584497941541	;
JU303	69.9336111111	1.19715243341	;
JU304	45.9898003472	1.79745002259	;
JU305	49.7673683449	1.09308084745	;
JU306	48.2422338856	1.08704922232	;
JU307	56.5494907407	1.43349261734	;
JU308	59.1364519033	1.29867997733	;
JU309	51.7125434028	1.97517368309	;
JU310	56.8416576646	1.40387713237	;
JU311	53.6395891204	1.59090540612	;
JU312	59.8860665295	1.27152524211	;
JU313	41.3581869963	1.24986396515	;
JU314	41.1265095467	1.11095388436	;
JU315	42.2750201528	1.00127438339	;
JU316	39.5250563797	1.0900270912	;
JU317	60.5433506944	0.377242166881	;
JU318	64.7056336806	0.371306480023	;
JU319	53.384994213	0.686401991396	;
JU320	43.5385993227	1.3863058314	;
JU321	39.6918682485	1.50645451847	;
JU322	60.1717256854	1.09029956509	;
JU323	54.8765502829	1.0335608406	;
JU324	55.761298011	1.2259519515	;
JU325	48.6918663194	1.25920974545	;
JU326	45.9611183985	1.18145735685	;
JU327	39.9718616867	1.0779267032	;
JU328	49.1612883211	1.12821195266	;
JU329	49.1612883211	1.12821195266	;
JU330	39.6774850637	1.09223432241	;
JU331	49.9592333168	1.37767367116	;
JU332	56.4692303241	0.648586987507	;
JU333	58.606880537	0.69316997826	;
JU334	60.9893736108	0.754965101655	;
JU335	38.8278995199	1.18697566593	;
JU336	84.3704861111	1.62076455121	;
JU337	75.0135243056	1.34029835943	;
JU338	58.7874608839	1.30365388448	;
JU339	79.6920052083	1.48053145532	;
JU340	59.1935065158	1.27282532882	;
JU341	48.8737174479	1.69933439711	;
JU342	50.2222926714	0.71582890202	;
JU343	42.3001388889	1.79328203783	;
JU344	46.6971383102	1.69463713421	;
JU345	49.9948305081	0.904454874734	;
JU346	44.9548870456	1.11387021718	;
JU347	51.5488226595	0.940192539091	;
JU348	53.1295061728	0.929720217247	;
JU349	52.4799189815	1.01467870791	;
JU350	58.2609002058	1.57076848883	;
JU351	59.8058699846	1.6135551007	;
JU352	59.3113996056	1.59830904955	;
JU353	58.3161104145	1.53367889616	;
JU354	32.4495507187	0.955063546994	;
JU355	59.3252021578	1.58903665138	;
JU356	53.8584164952	0.832281679662	;
JU357	51.7567249181	0.801246996679	;
JU358	77.8093789116	0.883785366397	;
JU359	60.2718261317	0.777977644951	;
JU360	62.136839474	1.34197589909	;
JU361	58.9483484841	1.3893070103	;
JU362	54.2054409401	0.636500973157	;
JU363	55.6136690786	1.31922365615	;
JU364	57.3186498309	1.09923350946	;
JU365	59.4679459297	1.27683880628	;
JU366	54.6666666667	0.0803371154167	;
JU367	54.4585821759	0.195246492091	;
JU368	54.332011558	0.415873732624	;
JU369	53.384994213	0.686401991396	;
JU370	43.1170524691	0.387721273964	;
JU371	44.2553148577	0.885395161291	;
JU372	49.0474074074	0.112192435889	;
JU373	49.1325102881	0.194131255319	;
JU374	48.2506196416	0.385939765449	;
JU375	38.7910378086	0.502420547438	;
JU377	51.6601653235	0.314914171169	;
JU378	37.529447588	0.778104952842	;
JU379	47.1156423611	0.757970637079	;
JU380	47.5765226337	0.806760719022	;
JU381	48.9130944216	0.956695578998	;
JU382	47.1643852881	0.181651934127	;
JU383	48.281094774	0.319611333484	;
JU384	41.0275941287	1.09036015086	;
JU385	40.5157111626	0.988761358716	;
JU386	57.7294377286	0.688795530703	;
JU387	59.7776901903	0.759666557084	;
JU388	53.4808043981	0.976642643712	;
JU389	35.4503600823	1.02997463508	;
JU390	40.6102685376	1.19518948014	;
JU391	54.5429615162	1.47921626154	;
JU392	28.336875	0.865542580269	;
JU393	43.5754205247	1.14116397973	;
JU394	35.7020068158	1.27132201745	;
JU395	60.4323648262	0.917850538825	;
JU396	69.0537615264	1.11444222686	;
JU397	74.5523199787	1.12437475436	;
JU398	78.7704142822	0.768455326124	;
JU399	73.620362244	0.962102895789	;
JU400	59.0820804755	0.741240360849	;
JU401	80.3125	0.562990817313	;
JU402	55.5970155559	0.77225033803	;
JU403	59.8185425955	1.03366436766	;
JU404	65.267645416	1.0278351199	;
JU405	61.3681985653	1.02890494563	;
JU406	54.7680866106	1.060178685	;
JU407	44.6095600383	1.08631831634	;

[RESERVOIRS]
;ID	Head	Pattern
R376	7056	;

[TANKS]
;ID	Elevation	InitLevel	MinLevel	MaxLevel	Diameter	MinVol	VolCurve
T55	141.735701702	3.25	1.00	10.00	30.00	0.00;
T77	111.54299792	3.25	1.00	10.00	30.00	0.00;
T9	116.617464196	3.25	1.00	10.00	30.00	0.00;
T22	127.035564301	3.25	1.00	10.00	30.00	0.00;
T12	88.3514283591	3.25	1.00	10.00	30.00	0.00;

[PIPES]
;ID	Node1	Node2	Length	Diameter	Roughness	MinorLoss	Status
PI1	JU1	JU251	1817.73413307	12	130	;
PI2	JU1	JU7	2633.46941059	12	130	;
PI3	JU2	JU241	922.705485233	12	120	;
PI4	JU2	JU231	134.651099291	12	140	;
PI5	JU3	JU10	2127.35806511	12	130	;
PI6	JU3	JU6	673.386880655	12	130	;
PI7	JU4	JU136	1177.78408862	12	130	;
PI8	JU4	JU246	637.574566046	12	120	;
PI9	JU5	JU106	2174.5028598	12	120	;
PI10	JU6	JU249	265.156642904	12	140	;
PI11	JU6	JU247	2444.17732813	12	120	;
PI12	JU7	JU106	1081.56448506	12	130	;
PI13	JU7	JU250	707.234170198	12	140	;
PI14	JU8	JU136	1987.44987189	12	120	;
PI15	T9	JU10	3018.43445982	12	140	;
PI16	JU10	JU246	2593.74071107	12	140	;
PI17	JU11	T12	1154.0009501	12	140	;
PI18	JU11	JU13	2901.0735958	12	130	;
PI19	JU11	JU14	838.229842192	12	140	;
PI20	JU13	JU108	3000.81382256	12	130	;
PI21	JU13	JU109	792.114019674	12	140	;
PI22	JU14	JU110	2565.56906169	12	120	;
PI23	JU14	JU111	3308.98574424	12	120	;
PI24	JU15	JU19	2560.14404113	12	140	;
PI25	JU15	JU89	3469.230438	12	120	;
PI26	JU15	JU211	2678.60442905	12	130	;
PI27	JU15	JU288	3019.09556922	12	120	;
PI28	JU16	JU17	707.969167972	12	120	;
PI29	JU16	JU18	2868.26506452	12	120	;
PI30	JU16	JU47	2800.01143407	12	130	;
PI31	JU17	JU47	3170.43162099	12	140	;
PI32	JU19	JU213	1131.42827562	12	120	;
PI33	JU20	JU280	264.906249377	12	120	;
PI34	JU20	JU21	3331.9704535	12	120	;
PI35	JU21	JU185	1236.01214984	12	120	;
PI36	T22	JU355	1356.36709649	12	120	;
PI37	JU23	JU24	228.485306814	12	140	;
PI38	JU23	JU25	931.102090695	12	140	;
PI39	JU23	JU144	1565.33963694	12	140	;
PI40	JU24	JU145	2301.28826945	12	120	;
PI41	JU24	JU25	3017.24091596	12	140	;
PI42	JU26	JU149	403.582657003	12	120	;
PI43	JU26	JU269	320.489824605	12	140	;
PI44	JU27	JU292	2634.67692835	12	120	;
PI45	JU27	JU207	2373.23987027	12	140	;
PI46	JU28	JU292	2601.68991145	12	130	;
PI47	JU28	JU254	512.210423441	12	130	;
PI48	JU29	JU170	1456.20314097	12	120	;
PI49	JU30	JU170	871.704483841	12	120	;
PI50	JU30	JU91	1739.57408141	12	140	;
PI51	JU31	JU146	2966.10507023	12	130	;
PI52	JU31	JU142	1400.25816823	12	140	;
PI53	JU32	JU146	2493.81263921	12	130	;
PI54	JU32	JU147	2383.76470875	12	120	;
PI55	JU32	JU118	2801.07172895	12	120	;
PI56	JU33	JU160	2237.88563073	12	120	;
PI57	JU33	JU291	1757.45798236	12	120	;
PI58	JU33	JU347	432.616567772	12	140	;
PI59	JU34	JU347	2345.95415751	12	120	;
PI60	JU34	JU36	1519.61799289	12	120	;
PI61	JU34	JU86	574.053604427	12	130	;
PI62	JU35	JU155	1596.34175165	12	140	;
PI63	JU35	JU340	1709.65543667	12	140	;
PI64	JU35	JU125	861.833719875	12	140	;
PI65	JU36	JU160	1029.01539626	12	140	;
PI66	JU36	JU320	1969.91603895	12	140	;
PI67	JU37	JU86	246.729680058	12	120	;
PI68	JU38	JU320	1225.28698664	12	130	;
PI69	JU38	JU41	3165.94608728	12	120	;
PI70	JU39	JU132	1408.5569715	12	130	;
PI71	JU40	JU43	972.333939302	12	140	;
PI72	JU40	JU187	525.071988969	12	120	;
PI73	JU40	JU46	2408.66662898	12	140	;
PI74	JU41	JU42	1324.50091857	12	140	;
PI75	JU42	JU321	2449.26781809	12	120	;
PI76	JU43	JU325	165.434784038	12	120	;
PI77	JU44	JU393	2327.5947329	12	130	;
PI78	JU44	JU139	2578.57249301	12	120	;
PI79	JU44	JU151	2473.51318313	12	130	;
PI80	JU45	JU132	2624.23785004	12	120	;
PI81	JU46	JU324	788.701274528	12	130	;
PI82	JU46	JU54	420.97145132	12	130	;
PI83	JU47	JU157	1795.24768613	12	120	;
PI84	JU48	JU338	3311.7870132	12	130	;
PI85	JU49	JU331	1707.42251161	12	140	;
PI86	JU49	JU51	727.940778718	12	140	;
PI87	JU49	JU53	2448.62838057	12	140	;
PI88	JU50	JU51	2589.00317611	12	140	;
PI89	JU51	JU116	442.531512855	12	130	;
PI90	JU52	JU116	2109.01048482	12	140	;
PI91	JU53	JU274	2794.34675655	12	120	;
PI92	JU53	JU390	2189.08897806	12	120	;
PI93	JU54	JU216	2456.07890997	12	140	;
PI94	JU54	JU315	2446.57320332	12	120	;
PI95	T55	JU225	2307.00612178	12	140	;
PI96	JU56	JU200	1918.58686941	12	140	;
PI97	JU56	JU167	867.614269206	12	130	;
PI98	JU57	JU248	1506.10626447	12	120	;
PI99	JU57	JU246	1997.68397457	12	140	;
PI100	JU57	JU247	1624.85145665	12	130	;
PI101	JU58	JU59	2342.43543698	12	140	;
PI102	JU58	JU196	559.267477236	12	120	;
PI103	JU58	JU117	1184.76018785	12	130	;
PI104	JU59	JU257	3194.80950535	12	140	;
PI105	JU60	JU198	958.306495525	12	120	;
PI106	JU60	JU110	3447.80481944	12	140	;
PI107	JU60	JU61	1040.07357031	12	140	;
PI108	JU62	JU381	1315.49976549	12	120	;
PI109	JU62	JU294	2953.84833192	12	140	;
PI110	JU63	JU168	1737.84767436	12	130	;
PI111	JU63	JU111	2613.0100387	12	120	;
PI112	JU64	JU217	539.98929957	12	140	;
PI113	JU64	JU92	258.66038242	12	130	;
PI114	JU64	JU220	2153.25272058	12	140	;
PI115	JU65	JU315	2183.88575963	12	130	;
PI116	JU65	JU316	723.485494727	12	130	;
PI117	JU66	JU88	1111.49619544	12	130	;
PI118	JU66	JU306	896.167754412	12	120	;
PI119	JU66	JU349	1362.58550742	12	140	;
PI120	JU67	JU336	1290.959098	12	120	;
PI121	JU68	JU73	1067.91120443	12	120	;
PI122	JU69	JU73	3080.83024049	12	130	;
PI123	JU69	JU71	2118.48408669	12	130	;
PI124	JU70	JU309	2388.36168961	12	140	;
PI125	JU72	JU237	1275.25608587	12	140	;
PI126	JU73	JU337	1120.08881964	12	140	;
PI127	JU73	JU391	3207.33508932	12	140	;
PI128	JU74	JU153	3026.86790678	12	120	;
PI129	JU74	JU172	2518.19055577	12	140	;
PI130	JU75	JU371	1413.61483582	12	140	;
PI131	JU75	JU293	1413.72374533	12	140	;
PI132	JU75	JU190	589.24643136	12	120	;
PI133	JU76	JU131	573.328849115	12	130	;
PI134	JU76	JU324	1613.59850019	12	120	;
PI135	JU78	JU129	2620.86655748	12	140	;
PI136	JU78	JU342	604.718172147	12	140	;
PI137	JU78	JU79	493.734047053	12	130	;
PI138	JU80	JU81	291.372533346	12	140	;
PI139	JU81	JU342	2793.43055019	12	120	;
PI140	JU82	JU256	2943.94136996	12	130	;
PI141	JU82	JU186	1984.72477213	12	140	;
PI142	JU82	JU83	2228.81625643	12	120	;
PI143	JU82	JU342	347.958301126	12	130	;
PI144	JU83	JU302	532.831903326	12	130	;
PI145	JU84	JU379	787.331458121	12	120	;
PI146	JU84	JU85	1366.13804747	12	140	;
PI147	JU84	JU183	2302.58719628	12	130	;
PI148	JU85	JU87	2323.37088306	12	140	;
PI149	JU87	JU96	1361.54316134	12	130	;
PI150	JU89	JU177	889.675013331	12	130	;
PI151	JU89	JU210	3300.63095853	12	130	;
PI152	JU89	JU213	3295.92826376	12	130	;
PI153	JU90	JU387	384.262949184	12	140	;
PI154	JU90	JU334	2375.46338255	12	120	;
PI155	JU90	JU399	1434.80277796	12	120	;
PI156	JU91	JU171	190.158055816	12	140	;
PI157	JU91	JU350	1761.00628921	12	140	;
PI158	JU92	JU93	1227.90980716	12	140	;
PI159	JU93	JU170	430.823351818	12	120	;
PI160	JU94	JU95	1308.20766498	12	130	;
PI161	JU94	JU303	3184.74826532	12	120	;
PI162	JU95	JU396	2858.60008442	12	120	;
PI163	JU95	JU229	1053.51760379	12	140	;
PI164	JU96	JU230	1928.63855112	12	130	;
PI165	JU97	JU227	261.535505251	12	130	;
PI166	JU98	JU227	1301.82741279	12	130	;
PI167	JU99	JU100	2954.5990508	12	140	;
PI168	JU100	JU104	730.517349314	12	140	;
PI169	JU100	JU101	3043.36402479	12	140	;
PI170	JU101	JU227	956.115972097	12	130	;
PI171	JU102	JU176	2932.63780392	12	140	;
PI172	JU102	JU174	2774.5855681	12	120	;
PI173	JU103	JU138	2240.8326674	12	130	;
PI174	JU103	JU227	1786.13146624	12	120	;
PI175	JU105	JU154	2883.8373106	12	140	;
PI176	JU105	JU245	2725.07399446	12	120	;
PI177	JU105	JU167	266.309786211	12	140	;
PI178	JU106	JU235	2593.39949213	12	140	;
PI179	JU107	JU341	2420.02820802	12	140	;
PI180	JU107	JU271	1371.73946712	12	140	;
PI181	JU108	JU201	332.521354635	12	140	;
PI182	JU108	JU198	338.758255241	12	120	;
PI183	JU109	JU113	1719.22878549	12	120	;
PI184	JU109	JU111	2105.93115308	12	120	;
PI185	JU112	JU115	929.632194422	12	130	;
PI186	JU112	JU196	2557.90242068	12	120	;
PI187	JU113	JU114	1855.92624454	12	140	;
PI188	JU113	JU115	1925.31018945	12	120	;
PI189	JU114	JU157	1587.43189752	12	120	;
PI190	JU115	JU117	943.234072528	12	120	;
PI191	JU119	JU128	467.480412551	12	130	;
PI192	JU119	JU378	2878.91795437	12	130	;
PI193	JU120	JU121	2695.95249207	12	130	;
PI194	JU120	JU217	1610.70328744	12	130	;
PI195	JU122	JU156	2156.81153993	12	130	;
PI196	JU122	JU389	3197.78652605	12	120	;
PI197	JU122	JU263	2926.86864669	12	140	;
PI198	JU123	JU346	3122.20835256	12	120	;
PI199	JU123	JU124	2237.83841894	12	120	;
PI200	JU123	JU125	2502.41773443	12	130	;
PI201	JU124	JU191	691.142384746	12	130	;
PI202	JU125	JU277	3217.81331861	12	120	;
PI203	JU126	JU200	623.749706207	12	140	;
PI204	JU126	JU197	2195.39148131	12	140	;
PI205	JU126	JU390	2212.36189184	12	120	;
PI206	JU127	JU141	837.596547808	12	130	;
PI207	JU127	JU142	1835.13417052	12	120	;
PI208	JU128	JU185	3418.1307006	12	140	;
PI209	JU129	JU156	3008.56399773	12	140	;
PI210	JU130	JU322	2361.58205893	12	120	;
PI211	JU131	JU404	2902.67870138	12	130	;
PI212	JU131	JU403	2796.81244112	12	130	;
PI213	JU132	JU250	2292.08249882	12	120	;
PI214	JU133	JU243	1773.21988685	12	130	;
PI215	JU134	JU138	1229.50188804	12	120	;
PI216	JU134	JU174	733.180257645	12	120	;
PI217	JU134	JU135	1359.02700909	12	120	;
PI218	JU136	JU138	1300.48390548	12	140	;
PI219	JU137	JU241	1737.65379745	12	120	;
PI220	JU137	JU243	1810.92714243	12	120	;
PI221	JU140	JU147	3165.63436622	12	120	;
PI222	JU140	JU148	1472.51504908	12	120	;
PI223	JU140	JU142	725.634302221	12	120	;
PI224	JU141	JU145	2031.30749165	12	130	;
PI225	JU141	JU143	3494.90153025	12	120	;
PI226	JU143	JU377	729.607948692	12	120	;
PI227	JU143	JU238	1426.20447495	12	120	;
PI228	JU144	JU145	2522.07375386	12	130	;
PI229	JU146	JU363	2018.31303689	12	130	;
PI230	JU146	JU148	2034.72545411	12	120	;
PI231	JU147	JU148	3010.80828564	12	120	;
PI232	JU149	JU268	380.824229246	12	140	;
PI233	JU149	JU394	1891.22351603	12	140	;
PI234	JU150	JU212	3061.11578478	12	140	;
PI235	JU150	JU204	1783.74716695	12	140	;
PI236	JU151	JU385	1423.40291381	12	130	;
PI237	JU151	JU261	1815.93722733	12	140	;
PI238	JU152	JU399	3037.41440158	12	120	;
PI239	JU153	JU204	2317.47146989	12	120	;
PI240	JU154	JU181	2076.77009295	12	140	;
PI241	JU156	JU306	1380.63856626	12	120	;
PI242	JU157	JU331	2966.78258305	12	140	;
PI243	JU158	JU361	3242.72341552	12	120	;
PI244	JU158	JU363	2079.43096877	12	140	;
PI245	JU159	JU297	439.252971926	12	140	;
PI246	JU159	JU362	501.4244606	12	130	;
PI247	JU160	JU290	1573.68762689	12	140	;
PI248	JU160	JU188	345.68655707	12	120	;
PI249	JU161	JU290	3369.40047743	12	140	;
PI250	JU161	JU255	1436.22103677	12	130	;
PI251	JU162	JU163	406.394241149	12	120	;
PI252	JU163	JU230	2603.57277146	12	120	;
PI253	JU164	JU230	2278.57633745	12	130	;
PI254	JU165	JU325	1039.58432462	12	120	;
PI255	JU165	JU326	1847.19000237	12	140	;
PI256	JU166	JU299	3405.06185024	12	120	;
PI257	JU166	JU300	1475.98701472	12	120	;
PI258	JU168	JU200	2017.05301422	12	130	;
PI259	JU168	JU381	2017.31454799	12	130	;
PI260	JU169	JU297	2905.95143552	12	120	;
PI261	JU169	JU301	2654.2877078	12	120	;
PI262	JU170	JU353	1639.98484403	12	120	;
PI263	JU172	JU289	2894.24320069	12	140	;
PI264	JU172	JU203	3358.53864302	12	130	;
PI265	JU172	JU202	2205.32909408	12	140	;
PI266	JU173	JU178	2908.21411604	12	130	;
PI267	JU175	JU176	618.003551378	12	130	;
PI268	JU175	JU177	1766.66587995	12	120	;
PI269	JU178	JU235	1519.41202353	12	120	;
PI270	JU178	JU301	1869.54061787	12	120	;
PI271	JU179	JU294	488.930925626	12	120	;
PI272	JU180	JU197	833.968979977	12	130	;
PI273	JU180	JU182	3285.94025941	12	130	;
PI274	JU184	JU264	889.982240965	12	130	;
PI275	JU184	JU189	509.923037094	12	120	;
PI276	JU185	JU378	748.130064106	12	130	;
PI277	JU186	JU188	1270.86034846	12	140	;
PI278	JU187	JU289	639.40996074	12	140	;
PI279	JU187	JU194	772.812385203	12	140	;
PI280	JU189	JU191	3325.26424085	12	140	;
PI281	JU190	JU192	1816.03808779	12	120	;
PI282	JU190	JU335	291.532461307	12	120	;
PI283	JU191	JU335	1343.27239308	12	140	;
PI284	JU192	JU371	3275.13841273	12	130	;
PI285	JU193	JU323	3036.7391561	12	130	;
PI286	JU193	JU326	363.781164717	12	140	;
PI287	JU194	JU313	2531.96577945	12	130	;
PI288	JU195	JU289	3464.77917818	12	120	;
PI289	JU196	JU201	619.441153817	12	120	;
PI290	JU199	JU296	444.759764024	12	120	;
PI291	JU199	JU201	2717.08303581	12	120	;
PI292	JU202	JU203	1454.3396906	12	130	;
PI293	JU202	JU205	2427.88429172	12	120	;
PI294	JU203	JU208	2069.81004791	12	140	;
PI295	JU204	JU208	1286.1322381	12	130	;
PI296	JU206	JU314	2262.77529974	12	140	;
PI297	JU206	JU330	3482.35992727	12	130	;
PI298	JU206	JU407	3299.85880166	12	140	;
PI299	JU207	JU317	1360.4011159	12	130	;
PI300	JU208	JU209	869.411221651	12	120	;
PI301	JU210	JU211	1799.19401944	12	130	;
PI302	JU214	JU280	966.495842147	12	120	;
PI303	JU214	JU392	1116.58884141	12	120	;
PI304	JU215	JU281	936.236623671	12	140	;
PI305	JU215	JU282	229.869073508	12	130	;
PI306	JU216	JU402	1704.37587236	12	140	;
PI307	JU216	JU387	1215.61315344	12	120	;
PI308	JU218	JU219	2314.26377149	12	130	;
PI309	JU218	JU357	2141.68014956	12	120	;
PI310	JU219	JU281	109.921170245	12	120	;
PI311	JU220	JU285	486.390299588	12	140	;
PI312	JU221	JU226	3474.59764698	12	130	;
PI313	JU221	JU222	1673.51483343	12	120	;
PI314	JU222	JU229	2991.15931651	12	120	;
PI315	JU223	JU224	2473.70850722	12	120	;
PI316	JU223	JU226	3438.03654506	12	120	;
PI317	JU224	JU397	1126.76619464	12	130	;
PI318	JU225	JU226	359.326449334	12	120	;
PI319	JU228	JU241	2375.31993471	12	140	;
PI320	JU228	JU249	1963.37901234	12	120	;
PI321	JU231	JU236	3400.52263282	12	120	;
PI322	JU231	JU334	1332.1231987	12	120	;
PI323	JU232	JU310	777.338833963	12	140	;
PI324	JU232	JU311	2942.07317559	12	140	;
PI325	JU233	JU234	1116.50965569	12	140	;
PI326	JU233	JU236	3433.44439097	12	130	;
PI327	JU234	JU332	819.614695738	12	130	;
PI328	JU237	JU337	2826.39823791	12	140	;
PI329	JU239	JU382	1445.83359677	12	120	;
PI330	JU239	JU383	2972.04920675	12	140	;
PI331	JU240	JU363	438.030709803	12	140	;
PI332	JU242	JU243	1628.46167515	12	120	;
PI333	JU244	JU248	783.345767951	12	120	;
PI334	JU248	JU249	2233.36425083	12	130	;
PI335	JU252	JU255	129.941282137	12	140	;
PI336	JU253	JU256	2879.1552995	12	140	;
PI337	JU254	JU257	205.76822058	12	120	;
PI338	JU255	JU291	2043.46848199	12	120	;
PI339	JU258	JU259	2457.08716757	12	140	;
PI340	JU258	JU270	1524.89562505	12	130	;
PI341	JU259	JU272	1392.78296419	12	140	;
PI342	JU260	JU379	2680.33149148	12	140	;
PI343	JU260	JU261	3211.24386796	12	130	;
PI344	JU261	JU378	208.575351674	12	140	;
PI345	JU262	JU375	724.921765562	12	130	;
PI346	JU262	JU263	1719.01331902	12	140	;
PI347	JU264	JU323	3016.46743171	12	120	;
PI348	JU265	JU266	1280.33960706	12	140	;
PI349	JU265	JU267	3235.63426207	12	120	;
PI350	JU267	JU268	1300.62097689	12	120	;
PI351	JU268	JU326	3459.60652592	12	120	;
PI352	JU268	JU269	934.031737452	12	140	;
PI353	JU269	JU313	996.129071848	12	140	;
PI354	JU270	JU273	1905.44111748	12	120	;
PI355	JU270	JU271	1789.61691627	12	120	;
PI356	JU271	JU384	2642.08091525	12	140	;
PI357	JU272	JU278	1876.47819536	12	120	;
PI358	JU273	JU278	3437.29478497	12	130	;
PI359	JU275	JU276	750.607052469	12	120	;
PI360	JU276	JU384	2448.47997673	12	140	;
PI361	JU276	JU277	228.307773322	12	140	;
PI362	JU278	JU279	2595.61868705	12	120	;
PI363	JU279	JU384	1851.22089403	12	130	;
PI364	JU279	JU346	2504.03991202	12	120	;
PI365	JU280	JU282	2951.65088812	12	120	;
PI366	JU281	JU354	1469.73900105	12	120	;
PI367	JU282	JU354	757.775776949	12	140	;
PI368	JU283	JU284	1763.18253928	12	130	;
PI369	JU283	JU285	2241.93717074	12	140	;
PI370	JU284	JU318	1462.42108622	12	130	;
PI371	JU286	JU401	3160.21805362	12	140	;
PI372	JU286	JU287	1427.58512614	12	140	;
PI373	JU287	JU398	1156.6848664	12	130	;
PI374	JU291	JU388	532.689332124	12	120	;
PI375	JU292	JU383	3208.47936819	12	140	;
PI376	JU293	JU347	2511.47368488	12	140	;
PI377	JU294	JU295	161.971433458	12	120	;
PI378	JU298	JU299	1709.84819184	12	130	;
PI379	JU300	JU386	2317.03356272	12	130	;