[TITLE]
Generated synthetic network;

[JUNCTIONS]
;ID	Elev	Demand	Pattern
JU1	42.65125	0.910289027831	;
JU2	48.1683539095	1.30912868423	;
JU3	45.2497067901	0.809751531151	;
JU4	51.0213580247	1.07535277242	;
JU6	40.214010631	1.05197607024	;
JU7	45.3516782407	0.88870964201	;
JU8	50.6281584362	1.24347848746	;
JU10	49.4229063786	0.797297785892	;
JU11	45.6520543981	1.42147623075	;
JU12	53.1983281893	1.3292263574	;
JU13	43.3216970486	1.43198191196	;
JU14	45.8920543981	1.35750815146	;
JU15	45.0077813721	0.771909672722	;
JU16	27.3610871771	1.33534627231	;
JU17	29.1618232739	1.3147861974	;
JU19	43.6457925415	0.799516884934	;
JU20	34.0731872106	0.929621776519	;
JU21	35.9544070698	0.843930957736	;
JU22	31.9988245349	0.835938557546	;
JU23	41.1069444444	0.442586403108	;
JU24	42.7123251029	0.451874540182	;
JU25	41.9096347737	0.447230471645	;
JU26	31.4022736626	1.01684970513	;
JU27	58.1403935185	0.614480729944	;
JU28	46.2922685185	0.799226715507	;
JU29	58.2783275463	1.39814203717	;
JU30	58.339927662	1.45122945948	;
JU31	66.6174074074	1.19408778973	;
JU32	54.5934156379	1.31718092503	;
JU33	54.1541762403	0.932575705224	;
JU34	53.5527490569	0.924397638068	;
JU35	54.0967466135	1.26008045975	;
JU36	52.1353317901	1.03284546867	;
JU37	53.823132716	0.931782170499	;
JU38	42.0350475823	1.31640718164	;
JU39	45.635625	1.22831733179	;
JU40	49.1514686214	1.08844258577	;
JU41	39.2067425412	1.23271746505	;
JU42	37.7925900206	1.19087260676	;
JU43	49.3838824588	1.00598685417	;
JU44	44.0508294753	1.14757712015	;
JU45	45.635625	1.22831733179	;
JU46	46.4267159636	1.09773524921	;
JU47	61.3364988426	0.576227143743	;
JU48	58.7917056756	1.36311939836	;
JU49	49.7817210005	1.19487232477	;
JU50	58.0988207305	1.27221067352	;
JU51	55.5574158022	1.27673413222	;
JU52	58.7917056756	1.36311939836	;
JU53	46.2545199974	1.16200332265	;
JU54	48.9460492398	1.04012578184	;
JU56	41.9147878086	1.03136520493	;
JU57	41.0441460905	1.16175593056	;
JU58	34.9067286094	1.50504918526	;
JU59	35.2671673525	1.35413196267	;
JU60	41.5176909722	1.50531741172	;
JU61	41.5176909722	1.50531741172	;
JU62	57.2636689815	0.926837798223	;
JU63	43.2229803241	1.00384206057	;
JU64	46.2614844822	0.691000928554	;
JU65	44.4576250286	1.38721907893	;
JU66	44.3171604938	1.02616372406	;
JU67	86.4963888889	1.72975766017	;
JU68	58.0747453704	1.5490670698	;
JU69	58.2312037037	1.1228930073	;
JU70	58.4603761574	1.66809628317	;
JU71	58.2312037037	1.1228930073	;
JU72	83.7602777778	1.17262195508	;
JU73	64.2638863169	1.34420239984	;
JU74	52.1543497085	1.07049957048	;
JU75	63.0116319444	1.21067656053	;
JU76	45.6712285665	1.04448260475	;
JU77	51.0472463349	1.26269605301	;
JU79	35.7540024595	1.07789568661	;
JU80	41.5541459298	0.69598261877	;
JU81	42.0603009259	1.01376723556	;
JU82	41.1648178691	0.875093620515	;
JU83	35.7158684172	0.574514967773	;
JU85	48.4311711516	1.16773726308	;
JU86	57.34861943	1.25982238952	;
JU87	53.6879408865	0.928089904284	;
JU88	61.3307224754	1.16614075399	;
JU89	44.3171604938	1.02616372406	;
JU90	43.9466682434	0.811986901273	;
JU91	54.3788066781	0.95317269334	;
JU92	58.7852536651	1.50513242049	;
JU93	50.3248278892	0.90504238392	;
JU94	54.3015777178	1.15159221054	;
JU95	68.460617284	1.19203560727	;
JU96	69.9190952218	1.20336218654	;
JU97	61.3540613245	1.02696398401	;
JU98	78.3489351852	1.43502829979	;
JU99	78.3489351852	1.43502829979	;
JU100	64.6777777778	1.08826108972	;
JU101	67.9067592593	1.16454146095	;
JU102	73.1278472222	1.29978488037	;
JU103	36.4338372878	1.27033037712	;
JU104	67.4160313786	1.3314145718	;
JU105	67.9067592593	1.16454146095	;
JU106	57.4189248971	1.10952880793	;
JU107	47.2190933642	0.853650368626	;
JU108	37.9781124793	1.43276600032	;
JU109	47.1978496335	1.33194191227	;
JU110	43.7048726852	1.43141278159	;
JU111	45.4376281186	1.23109737477	;
JU112	38.9720016718	1.56289711359	;
JU113	45.9060019612	1.35744572011	;
JU114	43.8364889564	1.26415569653	;
JU115	41.3295692408	1.50532138273	;
JU116	57.7136090511	1.33432430964	;
JU117	38.1181489251	1.505185284	;
JU118	54.5934156379	1.31718092503	;
JU119	39.0757637281	0.764163999716	;
JU120	30.961643197	0.78909694806	;
JU121	37.4965024595	1.27613692461	;
JU122	35.2249093364	0.915131592917	;
JU123	46.1821630391	1.11434353496	;
JU124	38.9853994529	1.28717970467	;
JU125	48.9403368895	1.12055084848	;
JU126	35.2158172582	1.06877122563	;
JU127	62.7613888889	0.869396284478	;
JU128	38.4556953286	0.761202069335	;
JU129	35.502114077	1.13199029253	;
JU130	72.6601388889	1.06851477558	;
JU131	65.5531150334	1.01201925721	;
JU132	45.6102951389	1.1755661359	;
JU133	36.9814814815	1.51050793824	;
JU134	47.1717292524	1.21994788114	;
JU135	47.1717292524	1.21994788114	;
JU136	52.7108813443	1.18221070123	;
JU137	39.3841975309	1.45180944462	;
JU138	55.7662139918	1.24452438472	;
JU139	44.8305623071	1.16157162803	;
JU140	60.3737311385	1.30785882925	;
JU141	55.8509773663	0.546340645398	;
JU142	63.2508424783	1.12378096782	;
JU143	55.7966838134	0.36925632506	;
JU144	44.3525154321	0.461149894332	;
JU145	47.6386059671	0.486455026638	;
JU146	55.4765534979	1.30073274396	;
JU147	57.3189529035	1.32947317438	;
JU148	57.72307918	1.31268824919	;
JU149	30.63489369	1.06311861531	;
JU150	49.7309375	1.27848160445	;
JU151	42.1685702803	1.05230347374	;
JU152	66.409691358	1.11402024565	;
JU153	57.7617534722	1.25874962037	;
JU154	63.4127692044	1.11252309974	;
JU155	53.8172424411	1.29810316764	;
JU156	36.782834965	1.09917565059	;
JU157	40.5181570341	1.24173976607	;
JU158	56.0704115226	1.07210515472	;
JU159	57.2115110597	0.963089704678	;
JU160	54.1956191891	1.0078385877	;
JU161	55.6759459305	1.06581726919	;
JU162	54.4597916667	0.797891802719	;
JU163	57.9185959201	0.842839508377	;
JU164	61.3774001736	0.887787214036	;
JU165	48.6617644033	0.908744829783	;
JU166	49.5605512287	0.942437777095	;
JU167	49.6668563529	1.07044700643	;
JU168	42.6763689558	0.904887934667	;
JU169	54.4013040123	1.12732449444	;
JU170	57.6777162369	1.37279415706	;
JU171	58.7852536651	1.50513242049	;
JU172	64.9772791281	1.06387547767	;
JU173	48.154537037	1.17441073732	;
JU174	41.8027832701	1.24513912913	;
JU175	35.6628214518	1.14705828317	;
JU176	36.0483293698	1.20869433015	;
JU177	39.8047448476	0.979522592222	;
JU178	49.7209927984	1.10151828717	;
JU179	66.055	1.11316959123	;
JU180	38.7858883102	1.30023240482	;
JU181	63.4127692044	1.11252309974	;
JU182	41.0537926794	1.36610715839	;
JU183	48.4311711516	1.16773726308	;
JU184	34.8509053498	1.40027456183	;
JU185	38.3055432849	0.816644153098	;
JU186	35.6246138961	0.478734800587	;
JU187	36.6190137389	1.31850845626	;
JU188	35.6246138961	0.478734800587	;
JU189	33.3197706083	1.43014521811	;
JU190	44.08063285	1.08471497401	;
JU191	36.3080612667	1.34527779301	;
JU192	45.1638619497	1.07508458362	;
JU193	55.3462860082	0.885063361542	;
JU194	44.7399485597	1.04070005509	;
JU195	61.7837268519	0.91620909496	;
JU196	35.469648634	1.47033973401	;
JU197	37.0008527842	1.18450181522	;
JU198	39.7479017258	1.46904170602	;
JU199	31.1450730881	1.17807345079	;
JU200	39.9356580075	1.00167478841	;
JU201	34.8642780671	1.36039306171	;
JU202	66.6970122814	1.06416391095	;
JU203	65.3613121571	1.08628821478	;
JU204	53.7463454861	1.26861561241	;
JU205	66.6970122814	1.06416391095	;
JU206	42.9174137104	1.44730901043	;
JU207	32.347022495	1.29729074526	;
JU208	64.8854786094	1.10855673525	;
JU209	64.8854786094	1.10855673525	;
JU210	46.2903861237	0.751202717176	;
JU211	45.6490837479	0.761556194949	;
JU212	49.7309375	1.27848160445	;
JU213	43.7962303925	0.805751893103	;
JU214	34.7522241512	0.823130083403	;
JU215	35.1112622171	0.826490324307	;
JU216	52.9603122321	0.83652994137	;
JU217	36.4073174047	0.77201214472	;
JU218	44.0416328018	0.825666127687	;
JU219	39.7926566787	0.829537150428	;
JU220	55.0702445559	0.530164637571	;
JU221	83.6997916667	1.35907728365	;
JU222	79.766716821	1.33578391383	;
JU223	78.9399594907	1.24851577197	;
JU224	73.4305138139	1.15539111506	;
JU225	86.9502083333	1.23722747598	;
JU226	83.1966531636	1.28160684386	;
JU227	74.3104372428	1.37531401294	;
JU228	39.3571502058	1.30753897383	;
JU229	74.8429060214	1.26957305018	;
JU230	60.2166858061	0.919196902141	;
JU231	53.5530739169	1.12693009452	;
JU232	52.4836998457	1.33253226651	;
JU233	60.873587963	0.828451248674	;
JU234	55.2034259259	0.941238488892	;
JU235	48.4700430813	0.977584327897	;
JU236	57.2133309399	0.977690671597	;
JU237	80.1229938272	1.26663453875	;
JU238	55.7966838134	0.36925632506	;
JU239	49.8414377572	0.227776744495	;
JU240	35.2158172582	1.06877122563	;
JU241	42.303233882	1.35615903422	;
JU242	36.9814814815	1.51050793824	;
JU243	37.7823868313	1.4909417737	;
JU244	35.7127469136	1.38818085462	;
JU245	57.4189248971	1.10952880793	;
JU246	47.1628034979	1.01146882962	;
JU247	40.6290783608	1.1068660004	;
JU248	37.8947599451	1.25730126061	;
JU249	39.1553069273	1.20560543489	;
JU250	45.4809866898	1.03213788895	;
JU251	42.65125	0.910289027831	;
JU252	54.3411728395	1.09398351384	;
JU253	33.363359375	0.374702325901	;
JU254	40.9599373071	1.00122072779	;
JU255	54.6175478205	1.06803863927	;
JU256	34.5396138961	0.474608646837	;
JU257	38.1135523298	1.17767634523	;
JU258	26.014837963	0.928502719025	;
JU259	23.0362037037	1.0107427137	;
JU260	42.8010141782	1.00732132905	;
JU261	43.4768207666	1.01804037452	;
JU262	35.2136834491	0.70126349133	;
JU263	35.2192963927	0.808197542124	;
JU264	48.918122428	1.13822137395	;
JU265	30.7928657979	1.08490183153	;
JU266	30.7928657979	1.08490183153	;
JU267	32.5920458009	1.02671292437	;
JU268	37.8593307677	0.986039623764	;
JU269	35.5353899198	1.01714799014	;
JU270	37.5327978013	0.950910299877	;
JU271	31.1662217078	0.940099518023	;
JU272	40.4564945559	0.991278250791	;
JU273	25.5289718364	0.952429669269	;
JU274	29.5939808385	0.917108071428	;
JU275	46.2545199974	1.16200332265	;
JU276	41.0287615741	0.845125585064	;
JU277	43.0964164845	0.881115497832	;
JU278	46.018376687	1.00083317316	;
JU279	32.2256995349	0.855173453156	;
JU280	40.6930964332	0.812721335829	;
JU281	34.5014184135	0.857441445122	;
JU282	36.6717270376	0.827505933014	;
JU283	34.9079809492	0.836807364579	;
JU284	66.2873668981	0.364916396784	;
JU285	66.4507667824	0.407077699522	;
JU286	60.678805727	0.447540517177	;
JU287	82.18125	0.671163894187	;
JU288	79.0612606096	0.715887055745	;
JU289	45.0077813721	0.771909672722	;
JU290	59.63211259	1.00431001376	;
JU291	54.9357825598	1.03682792844	;
JU292	54.2024162507	1.0149764931	;
JU293	52.1222162209	0.580900334633	;
JU294	47.410178514	0.97491879704	;
JU295	61.6593344907	1.02000369473	;
JU296	51.0472463349	1.26269605301	;
JU297	31.1450730881	1.17807345079	;
JU298	55.2675964506	1.00713557275	;
JU299	47.5161110039	1.24690876251	;
JU300	48.5383311163	1.0946732698	;
JU301	49.5421692347	0.766077957871	;
JU302	52.7707570302	1.05327843358	;
JU303	55.5046097679	0.971068161308	;
JU304	55.6759459305	1.06581726919	;
JU305	47.1473538773	1.73022316822	;
JU306	38.5589919705	1.26327099547	;
JU307	39.8863291431	1.12953679004	;
JU308	53.521257716	1.32230452435	;
JU309	54.920304784	1.3207098875	;
JU310	56.4289366319	1.61085658364	;
JU311	53.3872033608	1.31994649222	;
JU312	53.4674848894	1.40281789166	;
JU313	55.3711428326	1.3157986929	;
JU314	40.1376692397	1.02892402261	;
JU315	42.6914233147	1.33601040265	;
JU316	45.6059699677	1.29422883372	;
JU317	46.8334697322	1.38299847188	;
JU318	63.9753327546	0.512733073002	;
JU319	65.2130497685	0.459905386262	;
JU320	51.1807490998	0.606586937259	;
JU321	47.0946986454	1.19345337606	;
JU322	37.7925900206	1.19087260676	;
JU323	76.3507214506	0.941984994078	;
JU324	56.6117343964	0.993730413852	;
JU325	43.8490498364	1.09668435958	;
JU326	49.0228234311	0.957365841974	;
JU327	47.2891270597	0.926615938363	;
JU328	43.8003820573	1.38289169515	;
JU329	42.2170219569	1.22069547988	;
JU330	42.2170219569	1.22069547988	;
JU331	44.5170885	1.40439972582	;
JU332	45.1499390173	1.21830604542	;
JU333	51.6195891204	1.04924407281	;
JU334	51.6611544067	1.07747368676	;
JU335	53.1976783339	1.05252549154	;
JU336	83.9937191358	1.63748002573	;
JU337	75.2926431756	1.3853464433	;
JU338	54.3739733546	1.31363956006	;
JU339	79.6431811557	1.51141323451	;
JU340	54.7339447231	1.28793957632	;
JU341	51.3821626238	1.49166013005	;
JU342	45.9193285898	1.24146919042	;
JU343	39.8972106481	1.90682945233	;
JU344	42.3139250579	1.84796069096	;
JU345	31.480233866	0.812517752803	;
JU346	43.4376297361	0.963532435394	;
JU347	51.5744632278	0.859619769398	;
JU348	47.17	0.792243125063	;
JU349	45.7435802469	0.909203424562	;
JU350	59.7768174511	1.51195335489	;
JU351	60.662571695	1.53355320952	;
JU352	60.3367886231	1.52403275344	;
JU353	59.3418368038	1.47044640262	;
JU354	35.7898539934	0.832156648796	;
JU355	60.1137323739	1.50934412186	;
JU356	53.8531322874	0.835331334875	;
JU357	51.6737088001	0.793714188452	;
JU358	70.1652650427	0.861279098375	;
JU359	63.0042256444	0.894215359987	;
JU360	59.6416170839	0.811569063412	;
JU361	57.4860088973	0.857934013021	;
JU362	57.8815784322	0.91978411614	;
JU363	56.8547979538	1.13156936661	;
JU364	58.0756154978	0.983794404044	;
JU365	58.401080493	0.884432493492	;
JU366	58.1145669486	0.709411256081	;
JU367	58.9536655045	0.716259826759	;
JU368	58.8256203402	0.815871002104	;
JU369	46.7498247814	0.583006517226	;
JU370	41.4521036683	0.632940824875	;
JU371	45.4175452581	1.05978359418	;
JU372	47.3068981481	0.192387956718	;
JU373	46.1697209362	0.324434336642	;
JU374	42.9288808245	0.610822927344	;
JU375	38.3328935587	0.667102158103	;
JU376	46.1697209362	0.324434336642	;
JU377	53.8653352195	0.349124941754	;
JU378	40.2860425932	0.866282842445	;
JU379	45.6160926649	1.08752929606	;
JU380	48.472337963	0.740506005217	;
JU381	49.4707919667	0.857410579369	;
JU382	49.8414377572	0.227776744495	;
JU383	51.9429963992	0.385934006961	;
JU384	41.4153358245	0.895038361484	;
JU385	42.1685702803	1.05230347374	;
JU386	51.17534769	0.757698448674	;
JU387	52.8381555334	0.849133694461	;
JU388	54.2024162507	1.0149764931	;
JU389	38.3385065024	0.774036208896	;
JU390	46.2545199974	1.16200332265	;
JU391	42.3139250579	1.84796069096	;
JU392	34.7522241512	0.823130083403	;
JU393	44.0508294753	1.14757712015	;
JU394	31.6134697455	1.04491576984	;
JU395	60.7734614459	0.945035701061	;
JU396	66.2045416016	1.07022144858	;
JU397	66.7571349815	1.02044397577	;
JU398	74.6132628261	0.78858307706	;
JU399	63.7670689008	0.944965255828	;
JU400	60.0652934778	0.807180231389	;
JU401	82.18125	0.671163894187	;
JU402	54.8997715033	0.81247478707	;
JU403	61.3821561714	1.0179914002	;
JU404	71.0074812457	0.9591482082	;
JU405	66.494550165	1.00368636887	;
JU406	60.2719125383	1.08833941891	;
JU407	53.5526911353	1.2356689454	;

[RESERVOIRS]
;ID	Head	Pattern
R84	7056	;

[TANKS]
;ID	Elevation	InitLevel	MinLevel	MaxLevel	Diameter	MinVol	VolCurve
T55	148.838808315	3.25	1.00	10.00	30.00	0.00;
T78	115.109513245	3.25	1.00	10.00	30.00	0.00;
T18	94.3547135611	3.25	1.00	10.00	30.00	0.00;
T5	113.253279876	3.25	1.00	10.00	30.00	0.00;
T9	104.592784615	3.25	1.00	10.00	30.00	0.00;

[PIPES]
;ID	Node1	Node2	Length	Diameter	Roughness	MinorLoss	Status
PI1	JU1	JU251	239.680506867	12	140	;
PI2	JU1	JU7	2314.27134926	12	120	;
PI3	JU2	JU8	1065.24325105	12	130	;
PI4	JU2	JU241	3271.61778117	12	120	;
PI5	JU2	JU231	2082.71701491	12	140	;
PI6	JU3	JU10	2957.47555729	12	120	;
PI7	JU3	JU6	1437.96638363	12	130	;
PI8	JU4	JU136	2432.95174526	12	140	;
PI9	JU4	JU246	673.12317195	12	130	;
PI10	T5	JU107	909.179121786	12	130	;
PI11	JU6	JU249	2999.74479338	12	120	;
PI12	JU6	JU247	2932.87355725	12	130	;
PI13	JU7	JU250	1237.57858739	12	130	;
PI14	JU7	JU107	812.118611656	12	130	;
PI15	JU8	JU136	772.239025567	12	140	;
PI16	T9	JU10	528.98925123	12	130	;
PI17	JU10	JU246	3196.96398989	12	130	;
PI18	JU11	JU13	2776.24204512	12	120	;
PI19	JU11	JU14	3402.2954026	12	120	;
PI20	JU12	JU155	1424.41742558	12	120	;
PI21	JU13	JU108	3179.81986486	12	140	;
PI22	JU13	JU109	3331.36365065	12	130	;
PI23	JU13	JU182	144.296822234	12	140	;
PI24	JU14	JU110	491.739439601	12	140	;
PI25	JU14	JU111	2598.14861985	12	120	;
PI26	JU15	JU19	2554.7241363	12	120	;
PI27	JU15	JU289	2430.54458989	12	130	;
PI28	JU15	JU90	2677.04821023	12	130	;
PI29	JU15	JU211	1600.80866165	12	120	;
PI30	JU16	JU17	2407.40350756	12	120	;
PI31	JU16	T18	2943.26308113	12	130	;
PI32	JU16	JU207	2389.54833216	12	120	;
PI33	JU17	JU207	383.032232264	12	140	;
PI34	JU19	JU213	1253.5150988	12	140	;
PI35	JU20	JU281	1954.53777813	12	130	;
PI36	JU20	JU325	1267.24748168	12	130	;
PI37	JU20	JU22	2617.9091315	12	120	;
PI38	JU20	JU21	1445.6526213	12	130	;
PI39	JU21	JU185	2476.15463521	12	130	;
PI40	JU22	JU345	732.834143166	12	140	;
PI41	JU22	JU217	1152.88739284	12	140	;
PI42	JU23	JU24	493.876477952	12	140	;
PI43	JU23	JU25	349.656997384	12	130	;
PI44	JU23	JU144	2227.94260792	12	130	;
PI45	JU24	JU145	2295.20176097	12	140	;
PI46	JU24	JU25	1239.91768999	12	120	;
PI47	JU26	JU149	3432.85704188	12	140	;
PI48	JU26	JU269	2970.3262645	12	140	;
PI49	JU27	JU293	1794.37983745	12	120	;
PI50	JU27	JU47	1646.58927707	12	120	;
PI51	JU28	JU293	963.810351972	12	130	;
PI52	JU28	JU254	2671.25252455	12	140	;
PI53	JU29	JU170	2907.48297548	12	120	;
PI54	JU30	JU170	1806.75310167	12	140	;
PI55	JU30	JU92	219.57776434	12	120	;
PI56	JU31	JU142	764.265660693	12	130	;
PI57	JU32	JU146	2204.28383008	12	130	;
PI58	JU32	JU147	3044.54483348	12	140	;
PI59	JU32	JU118	3321.72185433	12	120	;
PI60	JU33	JU160	2052.06159514	12	140	;
PI61	JU33	JU347	3159.90363803	12	140	;
PI62	JU33	JU292	2413.42905722	12	140	;
PI63	JU34	JU74	558.096926368	12	130	;
PI64	JU34	JU347	2268.32584486	12	140	;
PI65	JU34	JU87	1331.83829803	12	130	;
PI66	JU35	JU155	3039.2755678	12	120	;
PI67	JU35	JU340	1203.50618076	12	120	;
PI68	JU35	JU125	634.467560903	12	120	;
PI69	JU36	JU40	1669.12706784	12	130	;
PI70	JU36	JU194	3415.72058865	12	120	;
PI71	JU36	JU290	1809.67842177	12	130	;
PI72	JU37	JU87	2347.81876569	12	140	;
PI73	JU38	JU41	1618.11906042	12	140	;
PI74	JU38	JU321	3032.33165305	12	140	;
PI75	JU39	JU132	1775.8778623	12	140	;
PI76	JU40	JU43	3237.53011848	12	120	;
PI77	JU40	JU46	1601.08010859	12	130	;
PI78	JU41	JU42	2749.43345749	12	140	;
PI79	JU42	JU322	3389.67234875	12	120	;
PI80	JU43	JU326	2296.45002004	12	130	;
PI81	JU44	JU393	3249.11258074	12	130	;
PI82	JU44	JU139	443.786885652	12	140	;
PI83	JU44	JU151	1426.82129412	12	120	;
PI84	JU45	JU132	1553.8649488	12	130	;
PI85	JU46	JU325	1568.75879692	12	140	;
PI86	JU46	JU54	1020.6508651	12	140	;
PI87	JU47	JU318	1236.18434424	12	120	;
PI88	JU48	JU116	1567.0936713	12	120	;
PI89	JU49	JU51	3120.28222261	12	120	;
PI90	JU49	JU332	2477.79538974	12	140	;
PI91	JU49	JU53	1356.29256138	12	120	;
PI92	JU50	JU51	848.307008843	12	140	;
PI93	JU51	JU116	1025.39488033	12	130	;
PI94	JU52	JU116	1153.08599233	12	140	;
PI95	JU53	JU275	2446.15734909	12	140	;
PI96	JU53	JU390	2447.44032218	12	140	;
PI97	JU54	JU216	2157.62590231	12	120	;
PI98	JU54	JU316	2826.01735081	12	140	;
PI99	T55	JU225	1125.13214384	12	140	;
PI100	JU56	JU200	1209.98836989	12	130	;
PI101	JU56	JU167	1583.71827241	12	130	;
PI102	JU57	JU248	2209.35540806	12	120	;
PI103	JU57	JU246	275.87005939	12	130	;
PI104	JU57	JU247	2246.21659692	12	120	;
PI105	JU58	JU59	1209.09559481	12	140	;
PI106	JU58	JU196	321.207121411	12	140	;
PI107	JU58	JU117	1973.5172583	12	140	;
PI108	JU59	JU257	448.229056241	12	120	;
PI109	JU60	JU198	1012.92438065	12	140	;
PI110	JU60	JU110	1959.14588405	12	130	;
PI111	JU60	JU61	1831.82594856	12	140	;
PI112	JU62	JU381	3048.81881169	12	140	;
PI113	JU62	JU295	2226.86607556	12	120	;
PI114	JU63	JU168	667.686168069	12	140	;
PI115	JU63	JU111	1634.70411644	12	130	;
PI116	JU64	JU217	2996.47696439	12	140	;
PI117	JU64	JU220	2150.98959905	12	140	;
PI118	JU64	JU93	2296.04856681	12	120	;
PI119	JU65	JU316	949.631524315	12	120	;
PI120	JU65	JU317	1633.55222215	12	140	;
PI121	JU66	JU89	1229.55471481	12	130	;
PI122	JU66	JU307	1837.75802856	12	120	;
PI123	JU66	JU349	419.540075464	12	140	;
PI124	JU67	JU336	2775.9245921	12	130	;
PI125	JU68	JU73	2381.113128	12	130	;
PI126	JU68	JU70	1979.05181088	12	130	;
PI127	JU69	JU73	3338.48445457	12	130	;
PI128	JU69	JU71	245.806357906	12	140	;
PI129	JU70	JU310	2765.55010881	12	120	;
PI130	JU72	JU237	2260.45515718	12	130	;
PI131	JU73	JU337	552.211499539	12	140	;
PI132	JU74	JU160	488.400160458	12	140	;
PI133	JU74	JU321	1546.0723916	12	120	;
PI134	JU75	JU153	1159.72584621	12	120	;
PI135	JU75	JU172	665.337747184	12	120	;
PI136	JU76	JU371	821.355965195	12	140	;
PI137	JU76	JU190	2989.97420973	12	140	;
PI138	JU76	JU294	1718.16806157	12	140	;
PI139	JU77	JU296	636.450066306	12	130	;
PI140	JU77	JU131	2770.99146819	12	130	;
PI141	JU77	JU325	3461.96038914	12	120	;
PI142	JU77	T78	472.312733489	12	130	;
PI143	JU79	JU129	2658.78851797	12	140	;
PI144	JU79	JU270	2616.40395537	12	120	;
PI145	JU80	JU280	225.998086121	12	140	;
PI146	JU81	JU82	303.909119303	12	120	;
PI147	JU82	JU374	1686.56267176	12	130	;
PI148	JU83	JU256	583.085834234	12	140	;
PI149	JU83	JU186	1321.37282524	12	140	;
PI150	JU83	R84	2508.82099925	12	130	;
PI151	JU83	JU270	3275.05908944	12	130	;
PI152	JU85	JU379	603.41144989	12	130	;
PI153	JU85	JU261	241.77752817	12	140	;
PI154	JU85	JU86	2883.60167697	12	130	;
PI155	JU85	JU183	2563.55427448	12	140	;
PI156	JU86	JU88	3070.91391149	12	130	;
PI157	JU88	JU97	1886.45617876	12	140	;
PI158	JU90	JU177	1951.87564595	12	140	;
PI159	JU90	JU210	2560.18119639	12	130	;
PI160	JU90	JU213	3246.71839775	12	140	;
PI161	JU91	JU399	2650.83670733	12	120	;
PI162	JU91	JU387	3366.7015313	12	140	;
PI163	JU91	JU166	204.367145963	12	120	;
PI164	JU91	JU335	408.206684569	12	140	;
PI165	JU92	JU171	670.301274612	12	130	;
PI166	JU92	JU350	1904.2607736	12	120	;
PI167	JU93	JU94	2741.03982255	12	140	;
PI168	JU94	JU170	842.713320783	12	140	;
PI169	JU95	JU96	1932.75545524	12	140	;
PI170	JU96	JU396	1822.46923315	12	130	;
PI171	JU96	JU229	1559.01419468	12	140	;
PI172	JU97	JU230	3431.81665284	12	140	;
PI173	JU98	JU227	3236.3033755	12	120	;
PI174	JU99	JU227	2741.22202423	12	130	;
PI175	JU100	JU101	2313.95565383	12	130	;
PI176	JU101	JU105	160.240710441	12	140	;
PI177	JU101	JU102	3422.74204919	12	130	;
PI178	JU102	JU227	754.264397851	12	130	;
PI179	JU103	JU176	2420.33192363	12	120	;
PI180	JU103	JU174	1505.87231744	12	120	;
PI181	JU104	JU138	670.905215332	12	120	;
PI182	JU104	JU227	488.541513868	12	130	;
PI183	JU106	JU154	341.347002621	12	140	;
PI184	JU106	JU245	162.615134945	12	120	;
PI185	JU106	JU167	2901.81636533	12	120	;
PI186	JU107	JU235	306.014537747	12	130	;
PI187	JU108	JU201	3070.67374571	12	120	;
PI188	JU108	JU198	2873.19919408	12	130	;
PI189	JU109	JU113	866.249452743	12	130	;
PI190	JU109	JU111	1806.71550336	12	120	;
PI191	JU112	JU115	772.786892323	12	130	;
PI192	JU112	JU196	273.146702176	12	140	;
PI193	JU113	JU114	2074.2971372	12	140	;
PI194	JU113	JU115	1006.43721469	12	120	;
PI195	JU114	JU157	1600.78068676	12	120	;
PI196	JU115	JU117	386.119552339	12	130	;
PI197	JU119	JU128	3296.11650083	12	140	;
PI198	JU119	JU378	3210.82178969	12	120	;
PI199	JU120	JU345	257.708307073	12	130	;
PI200	JU120	JU217	2904.00494451	12	120	;
PI201	JU121	JU306	2846.35940307	12	130	;
PI202	JU121	JU270	2517.57533067	12	120	;
PI203	JU122	JU156	2814.19186706	12	140	;
PI204	JU122	JU389	1242.03174903	12	120	;
PI205	JU122	JU263	3133.97193761	12	140	;
PI206	JU123	JU346	1124.36344335	12	130	;
PI207	JU123	JU124	503.924816292	12	140	;
PI208	JU123	JU125	1299.62787115	12	140	;
PI209	JU124	JU191	1067.85915272	12	120	;
PI210	JU125	JU278	1805.09370849	12	130	;
PI211	JU126	JU200	1083.45986905	12	140	;
PI212	JU126	JU240	341.223068244	12	120	;
PI213	JU126	JU197	594.698345824	12	120	;
PI214	JU127	JU141	685.153221599	12	140	;
PI215	JU127	JU142	3225.36972201	12	130	;
PI216	JU128	JU185	3339.26433471	12	120	;
PI217	JU129	JU156	1283.78356755	12	130	;
PI218	JU130	JU323	3494.22842802	12	140	;
PI219	JU131	JU403	986.985469365	12	140	;
PI220	JU131	JU404	811.563960008	12	130	;
PI221	JU132	JU250	3161.13492437	12	120	;
PI222	JU132	JU139	2466.35560761	12	130	;
PI223	JU133	JU243	2130.85917906	12	140	;
PI224	JU134	JU138	590.950462484	12	120	;
PI225	JU134	JU174	2402.53735647	12	140	;
PI226	JU134	JU135	465.228795526	12	140	;
PI227	JU136	JU138	2566.40610083	12	130	;
PI228	JU137	JU241	2598.5932662	12	120	;
PI229	JU137	JU243	653.882363982	12	130	;
PI230	JU140	JU147	2686.08808776	12	120	;
PI231	JU140	JU148	2606.88459645	12	120	;
PI232	JU140	JU142	2018.05185931	12	140	;
PI233	JU141	JU145	1187.23485586	12	140	;
PI234	JU141	JU143	1454.97947815	12	130	;
PI235	JU143	JU377	941.304247146	12	120	;
PI236	JU143	JU238	1172.60331663	12	130	;
PI237	JU144	JU145	1229.63452248	12	130	;
PI238	JU146	JU363	510.451121603	12	120	;
PI239	JU146	JU148	3289.15727556	12	130	;
PI240	JU147	JU148	177.109845891	12	130	;
PI241	JU149	JU265	683.874163267	12	120	;
PI242	JU149	JU394	113.959409299	12	130	;
PI243	JU150	JU212	3000.78542465	12	120	;
PI244	JU150	JU204	262.082113731	12	130	;
PI245	JU151	JU385	1420.3768407	12	120	;
PI246	JU151	JU261	731.24591554	12	120	;
PI247	JU152	JU154	2278.73167969	12	130	;
PI248	JU153	JU204	2970.76058946	12	120	;
PI249	JU154	JU181	274.521823817	12	120	;
PI250	JU155	JU338	1453.60345152	12	120	;
PI251	JU156	JU307	2786.69877929	12	120	;
PI252	JU157	JU332	1214.21209011	12	130	;
PI253	JU157	JU207	2278.04005678	12	120	;
PI254	JU158	JU361	2050.97584857	12	130	;
PI255	JU158	JU363	2143.69518806	12	130	;
PI256	JU159	JU362	3305.08551832	12	120	;
PI257	JU159	JU298	2960.09843211	12	130	;
PI258	JU160	JU291	1934.95710767	12	120	;
PI259	JU161	JU304	109.487154461	12	140	;
PI260	JU161	JU291	729.706382295	12	120	;
PI261	JU161	JU255	1252.97726498	12	120	;
PI262	JU162	JU163	3445.93480459	12	130	;
PI263	JU163	JU230	2040.13042184	12	120	;
PI264	JU164	JU230	2984.65165004	12	140	;
PI265	JU165	JU326	364.579941505	12	130	;
PI266	JU165	JU327	2456.46405281	12	120	;
PI267	JU166	JU300	283.928104972	12	130	;
PI268	JU166	JU301	3214.87678281	12	140	;
PI269	JU168	JU200	2528.400302	12	130	;
PI270	JU168	JU381	1003.37370237	12	140	;
PI271	JU169	JU298	617.898214544	12	120	;
PI272	JU169	JU302	1018.98224896	12	120	;
PI273	JU170	JU353	213.004334854	12	130	;
PI274	JU172	JU202	822.635879903	12	120	;
PI275	JU172	JU290	1018.75663004	12	140	;
PI276	JU172	JU203	2868.01795523	12	130	;
PI277	JU173	JU178	670.840374498	12	140	;
PI278	JU175	JU176	897.722167008	12	120	;
PI279	JU175	JU177	2829.60881042	12	130	;
PI280	JU178	JU235	3461.76173959	12	130	;
PI281	JU178	JU302	2733.14763799	12	120	;
PI282	JU179	JU295	2515.17224132	12	130	;
PI283	JU180	JU197	1393.6837366	12	130	;
PI284	JU180	JU182	3417.26594537	12	120	;
PI285	JU184	JU264	2414.23897246	12	140	;
PI286	JU184	JU187	3000.58616916	12	140	;
PI287	JU184	JU189	1072.55359822	12	120	;
PI288	JU185	JU378	250.176726486	12	130	;
PI289	JU186	JU188	1950.62933732	12	120	;
PI290	JU187	JU190	1490.21591776	12	130	;
PI291	JU187	JU191	2007.33347491	12	140	;
PI292	JU189	JU191	1987.59301851	12	130	;
PI293	JU190	JU192	1035.71373811	12	130	;
PI294	JU190	JU294	2449.94759257	12	140	;
PI295	JU192	JU371	1738.86462135	12	130	;
PI296	JU193	JU324	165.907088725	12	120	;
PI297	JU193	JU327	2864.7042359	12	120	;
PI298	JU194	JU314	1321.00728483	12	120	;
PI299	JU195	JU290	1413.49367116	12	140	;
PI300	JU196	JU201	609.753526242	12	140	;
PI301	JU199	JU297	3324.2684761	12	120	;
PI302	JU199	JU201	2157.9455339	12	130	;
PI303	JU202	JU203	658.078432057	12	140	;
PI304	JU202	JU205	1930.75775922	12	130	;
PI305	JU203	JU208	382.06443529	12	140	;
PI306	JU206	JU331	561.58892748	12	130	;
PI307	JU206	JU315	2869.45387817	12	120	;
PI308	JU208	JU209	2352.52172113	12	120	;
PI309	JU210	JU211	2864.53472898	12	120	;
PI310	JU214	JU392	3261.61094943	12	120	;
PI311	JU214	JU281	2384.14943288	12	140	;
PI312	JU215	JU282	1752.87000583	12	120	;
PI313	JU215	JU283	1197.74798625	12	140	;
PI314	JU216	JU402	3060.41078508	12	120	;
PI315	JU216	JU387	1191.68442621	12	120	;
PI316	JU218	JU219	3293.13617614	12	140	;
PI317	JU218	JU357	2163.54637025	12	130	;
PI318	JU219	JU282	2361.92044441	12	120	;
PI319	JU220	JU286	3459.641744	12	120	;
PI320	JU221	JU226	2626.73569401	12	120	;
PI321	JU221	JU222	1419.78220521	12	140	;
PI322	JU222	JU229	194.909670633	12	130	;
PI323	JU223	JU224	1869.97343533	12	140	;
PI324	JU223	JU226	1867.36078237	12	120	;
PI325	JU224	JU397	917.761568877	12	130	;
PI326	JU225	JU226	1534.11797542	12	130	;
PI327	JU228	JU241	3402.25432137	12	120	;
PI328	JU228	JU249	1902.12049635	12	140	;
PI329	JU231	JU236	3161.72098157	12	140	;
PI330	JU231	JU335	2959.37043427	12	130	;
PI331	JU232	JU312	1524.13795624	12	120	;
PI332	JU232	JU311	1939.99098534	12	130	;
PI333	JU233	JU234	3306.70746741	12	130	;
PI334	JU233	JU236	3147.53517899	12	130	;
PI335	JU234	JU333	473.335408288	12	120	;
PI336	JU237	JU337	1879.2625212	12	120	;
PI337	JU239	JU382	1955.3368206	12	130	;
PI338	JU239	JU383	1349.0791439	12	120	;
PI339	JU242	JU243	818.14005777	12	120	;
PI340	JU244	JU248	1430.60513382	12	120	;
PI341	JU248	JU249	1435.79968988	12	130	;
PI342	JU252	JU255	2703.17225653	12	120	;
PI343	JU253	JU256	2406.14695773	12	140	;
PI344	JU254	JU257	3126.98901326	12	140	;
PI345	JU255	JU292	499.346254405	12	140	;
PI346	JU258	JU259	342.255032138	12	130	;
PI347	JU258	JU271	1410.85905055	12	130	;
PI348	JU259	JU273	482.509726765	12	120	;
PI349	JU260	JU379	1874.08545088	12	140	;
PI350	JU260	JU261	3023.25821759	12	140	;
PI351	JU261	JU378	2224.0482884	12	130	;
PI352	JU262	JU375	355.627345096	12	140	;
PI353	JU262	JU263	2482.74237157	12	140	;
PI354	JU264	JU324	813.979645176	12	130	;
PI355	JU265	JU266	1781.04949485	12	130	;
PI356	JU265	JU267	3429.79467326	12	120	;
PI357	JU267	JU394	498.029669961	12	120	;
PI358	JU267	JU268	2938.2092567	12	130	;
PI359	JU268	JU269	1208.67476364	12	140	;
PI360	JU268	JU327	673.03770166	12	130	;
PI361	JU269	JU314	2733.43249556	12	130	;
PI362	JU271	JU272	520.474274687	12	140	;
PI363	JU271	JU274	921.568345208	12	140	;
PI364	JU272	JU384	642.08641959	12	140	;
PI365	JU272	JU342	2557.27743124	12	140	;
PI366	JU273	JU279	2345.19536783	12	130	;
PI367	JU274	JU279	3360.0761287	12	140	;
PI368	JU276	JU277	2516.070662	12	130	;
PI369	JU277	JU384	2881.51866666	12	120	;
PI370	JU277	JU278	456.411541223	12	140	;
PI371	JU279	JU280	1598.52375676	12	130	;
PI372	JU280	JU384	2508.94527618	12	130	;
PI373	JU280	JU346	363.744755694	12	120	;
PI374	JU281	JU283	1885.12351802	12	130	;
PI375	JU282	JU354	1446.4202063	12	130	;
PI376	JU283	JU354	2345.09280254	12	120	;
PI377	JU284	JU285	1074.65352319	12	140	;
PI378	JU284	JU286	3165.21573517	12	120	;
PI379	JU285	JU319	758.52615728	12	130	;