[TITLE]
Generated synthetic network;

[JUNCTIONS]
;ID	Elev	Demand	Pattern
JU1	702.577724946	136.345354418	;
JU2	700.741349995	148.348729726	;
JU3	708.330574322	118.857774264	;
JU4	706.824979977	124.370557515	;
JU5	712.933420974	119.207103954	;
JU6	702.176552881	132.55714705	;
JU7	709.196726676	121.632366952	;
JU8	708.763650499	120.245070608	;
JU9	705.664532562	126.795409375	;
JU10	703.244250089	130.314081419	;
JU11	703.0194768	130.411525593	;
JU12	705.733490798	123.183240851	;
JU13	704.819801691	128.008400607	;
JU15	707.805918409	124.670304645	;
JU16	703.131863444	130.362803506	;
JU17	706.29462227	123.349805241	;

[RESERVOIRS]
;ID	Head	Pattern
R14	7056	;

[TANKS]
;ID	Elevation	InitLevel	MinLevel	MaxLevel	Diameter	MinVol	VolCurve
T14	751.143818664	3.25	1.00	10.00	30.00	0.00;

[PIPES]
;ID	Node1	Node2	Length	Diameter	Roughness	MinorLoss	Status
PI1	JU1	JU2	3065.27515235	12	140	;
PI2	JU1	JU4	1414.47290788	12	120	;
PI3	JU1	JU13	2436.7762654	12	120	;
PI4	JU1	JU6	1946.78946667	12	120	;
PI5	JU2	T14	3491.4439947	12	140	;
PI6	JU3	JU8	1376.57030907	12	130	;
PI7	JU3	JU17	2756.78350069	12	140	;
PI8	JU3	JU4	1760.42524195	12	130	;
PI9	JU4	JU12	790.300987574	12	130	;
PI10	JU4	JU13	2418.55973893	12	130	;
PI11	JU4	JU7	104.578772919	12	120	;
PI12	JU5	JU7	1629.6876555	12	140	;
PI13	JU5	JU15	2135.3373744	12	140	;
PI14	JU6	JU10	1352.6637685	12	140	;
PI15	JU6	JU11	743.28718466	12	120	;
PI16	JU6	JU13	1805.7602404	12	140	;
PI17	JU7	JU8	287.611928957	12	120	;
PI18	JU7	JU9	2615.68877075	12	140	;
PI19	JU9	JU11	2118.75482013	12	140	;
PI20	JU9	JU10	3164.57224791	12	140	;
PI21	JU9	JU15	3488.03464511	12	130	;
PI22	JU10	JU16	105.412693988	12	140	;
PI23	JU11	JU16	3274.81519812	12	130	;
PI24	JU11	JU13	3294.56432697	12	140	;
PI25	JU12	JU17	2419.05361459	12	140	;
PI26	JU13	JU15	3232.67211766	12	120	;
PI27	JU13	JU17	1509.12461887	12	120	;

[PUMPS]
;ID	Node1	Node2	Parameters

[TIMES]
Duration		24:00
Hydraulic Timestep	1:00
Quality Timestep	0:05
Pattern Timestep	1:00
Pattern Start	0:00
Report Timestep	1:00
Report Start	0:00
Start Clocktime	12 am
Statistic		NONE

[COORDINATES]
;Node	X - Coord	Y - Coord
JU1	-14.4056297695	12.1834497362
JU2	-26.4847948972	22.1454203915
JU3	-12.4235802471	-25.1103737136
JU4	-11.1241417317	-9.19576330826
JU5	20.4847155465	-19.1686335912
JU6	2.14277154103	18.4901056136
JU7	9.08084880401	-18.7041410086
JU8	-0.580729390851	-29.6937076325
JU9	21.4077354974	1.84920565669
JU10	21.8174919532	18.0634780713
JU11	12.3263614374	14.9948193566
JU12	-25.8162018917	-12.7068032472
JU13	-2.66471398551	2.81098957563
JU15	17.3995787451	-7.5774517595
JU16	21.1819092977	25.7737586183
JU17	-19.0712341035	-15.7791847702
R14	-32.3022960872	26.9974095151
T14	-32.3022960872	26.9974095151

[VALVES]
;ID	Node1	Node2	Diameter	Type	Setting	MinorLoss

[PATTERNS]
;ID	Multipliers
1	1.0000	1.0000	1.0000	0.9000	0.9000	0.9000
1	.7000	.7000	0.7000	0.6000	0.6000	0.6000
1	1.2000	1.2000	1.2000	1.3000	1.3000	1.3000
1	1.2000	1.2000	1.2000	1.1000	1.1000	1.1000

[TAGS]

[DEMANDS]

[STATUS]

[CURVES]
;ID 	X-Value	 Y-Value
1	10	280

[CONTROLS]

[RULES]

[ENERGY]
