[TITLE]
Generated synthetic network;

[JUNCTIONS]
;ID	Elev	Demand	Pattern
JU1	712.802883786	127.400452932	;
JU3	716.047000891	128.291424077	;
JU4	711.989391142	128.066628243	;
JU6	717.944601795	128.237445977	;
JU7	712.13616467	127.966508515	;
JU8	715.2913313	127.86174083	;
JU9	713.492015069	127.589216479	;
JU10	713.290411093	128.178141914	;
JU11	714.184750701	127.815160826	;
JU12	714.391673184	127.725478654	;
JU13	712.434399005	127.907079518	;
JU14	713.726334353	128.817084034	;
JU15	712.721258629	127.349522029	;
JU16	718.666556707	129.48885032	;
JU17	713.309574853	127.861120172	;
JU18	712.739990929	128.194584545	;
JU19	718.940982612	129.79450018	;
JU20	712.171777701	128.070460476	;
JU21	712.210088791	128.099929901	;
JU22	711.887406713	128.577032737	;
JU23	712.186651606	127.980072092	;
JU24	712.710787651	128.255868918	;
JU25	712.762071207	127.37498748	;
JU26	716.894721035	128.04778437	;
JU27	717.617489121	128.119951518	;
JU28	712.637673124	128.484809119	;
JU29	718.714258845	129.614859223	;
JU30	712.742694391	128.212158377	;
JU31	713.18340691	128.671194659	;
JU32	718.657577904	129.569948983	;
JU33	718.744844017	129.617039677	;
JU34	717.809195443	128.238112475	;
JU35	717.910747764	128.408188886	;
JU36	715.2913313	127.86174083	;
JU37	712.219261965	128.619820999	;
JU38	712.058411319	128.034401626	;
JU39	712.053334339	128.598426868	;
JU40	716.995801343	128.264435027	;
JU41	712.681647135	128.502096565	;
JU42	718.412729539	129.203712163	;
JU43	717.191042495	128.156831803	;
JU44	717.247590024	128.064605597	;
JU45	714.007886176	128.234042491	;
JU46	712.867733844	128.245055542	;
JU47	712.097287995	128.000455071	;
JU48	712.058411319	128.034401626	;
JU49	712.538911317	128.172492722	;
JU50	717.467420295	128.157950853	;
JU51	718.539643123	129.346281241	;
JU52	712.910540017	128.578001889	;
JU53	712.761351224	128.207876938	;
JU54	712.762071207	127.37498748	;
JU55	717.306805119	128.097573085	;
JU56	712.262539918	128.530920928	;
JU57	712.776640879	128.164552644	;
JU58	712.784424692	128.190452465	;

[RESERVOIRS]
;ID	Head	Pattern
R5	7056	;

[TANKS]
;ID	Elevation	InitLevel	MinLevel	MaxLevel	Diameter	MinVol	VolCurve
T2	782.094319507	3.25	1.00	10.00	30.00	0.00;

[PIPES]
;ID	Node1	Node2	Length	Diameter	Roughness	MinorLoss	Status
PI1	JU1	JU25	2719.37986327	12	140	;
PI2	JU1	JU9	2725.1187231	12	120	;
PI3	JU1	JU54	1213.78318067	12	130	;
PI4	JU1	JU15	3159.20098781	12	140	;
PI5	T2	JU58	3261.42212219	12	140	;
PI6	JU3	JU40	1709.80291636	12	140	;
PI7	JU3	JU45	586.990044109	12	130	;
PI8	JU4	JU38	2901.61608192	12	130	;
PI9	R5	JU32	2324.14142033	12	130	;
PI10	JU6	JU40	2979.00261959	12	120	;
PI11	JU6	JU43	1035.56689882	12	130	;
PI12	JU7	JU23	837.090415758	12	130	;
PI13	JU7	JU13	1788.55304906	12	130	;
PI14	JU7	JU47	1237.76493744	12	140	;
PI15	JU8	JU12	1776.00708184	12	140	;
PI16	JU8	JU11	1253.52784073	12	120	;
PI17	JU8	JU36	3259.94457618	12	120	;
PI18	JU8	JU43	2597.67660823	12	120	;
PI19	JU9	JU12	1084.22139133	12	130	;
PI20	JU10	JU57	1233.33928816	12	140	;
PI21	JU10	JU45	2635.1011642	12	130	;
PI22	JU11	JU17	2656.47146519	12	140	;
PI23	JU13	JU17	990.585323969	12	130	;
PI24	JU13	JU23	163.099741027	12	140	;
PI25	JU14	JU31	267.766428612	12	130	;
PI26	JU15	JU54	509.762735048	12	140	;
PI27	JU15	JU25	118.110552108	12	140	;
PI28	JU16	JU33	2237.51888715	12	130	;
PI29	JU16	JU51	1456.65605514	12	120	;
PI30	JU18	JU24	3360.63461249	12	140	;
PI31	JU18	JU58	364.977391313	12	120	;
PI32	JU18	JU53	3077.20766242	12	130	;
PI33	JU18	JU30	2029.06383729	12	120	;
PI34	JU19	JU33	2998.29575501	12	130	;
PI35	JU19	JU29	714.058082614	12	120	;
PI36	JU20	JU57	3081.00104392	12	140	;
PI37	JU20	JU21	1296.61604309	12	130	;
PI38	JU21	JU49	1425.02862144	12	130	;
PI39	JU22	JU56	3443.7502774	12	130	;
PI40	JU22	JU39	847.531430867	12	140	;
PI41	JU23	JU38	634.341598364	12	120	;
PI42	JU24	JU28	1664.06574669	12	130	;
PI43	JU24	JU53	1828.09952783	12	130	;
PI44	JU24	JU30	1208.57387061	12	130	;
PI45	JU26	JU44	2182.13462256	12	140	;
PI46	JU26	JU55	1699.03364186	12	120	;
PI47	JU27	JU50	2722.71105194	12	130	;
PI48	JU27	JU43	343.45512162	12	140	;
PI49	JU27	JU34	694.741799533	12	140	;
PI50	JU27	JU55	2008.34591661	12	140	;
PI51	JU28	JU41	3207.80694098	12	140	;
PI52	JU28	JU52	1625.19668866	12	120	;
PI53	JU28	JU56	2946.1676708	12	140	;
PI54	JU29	JU32	133.124479786	12	130	;
PI55	JU29	JU33	1647.83343788	12	130	;
PI56	JU29	JU42	2888.03136891	12	130	;
PI57	JU30	JU53	3327.76121469	12	140	;
PI58	JU31	JU41	1063.98679338	12	130	;
PI59	JU31	JU52	1178.61738558	12	130	;
PI60	JU32	JU33	699.080408953	12	130	;
PI61	JU32	JU42	547.272890992	12	140	;
PI62	JU34	JU35	2964.91760268	12	130	;
PI63	JU35	JU43	2514.96560627	12	130	;
PI64	JU35	JU42	2907.30064606	12	120	;
PI65	JU35	JU50	2817.60977674	12	140	;
PI66	JU37	JU41	685.287573562	12	130	;
PI67	JU37	JU39	3138.73087429	12	140	;
PI68	JU38	JU48	1875.99413876	12	130	;
PI69	JU38	JU47	1502.31374406	12	120	;
PI70	JU41	JU46	3032.66112196	12	130	;
PI71	JU42	JU51	375.485422791	12	140	;
PI72	JU44	JU50	1521.91385674	12	140	;
PI73	JU44	JU55	211.145205196	12	120	;
PI74	JU46	JU49	2988.04628191	12	130	;
PI75	JU46	JU57	2084.84308161	12	130	;
PI76	JU50	JU55	491.689308123	12	130	;
PI77	JU53	JU58	2460.68627152	12	130	;

[PUMPS]
;ID	Node1	Node2	Parameters
PU1	JU45	JU46	HEAD 1 	PATTERN 2	;

[TIMES]
Duration		24:00
Hydraulic Timestep	1:00
Quality Timestep	0:05
Pattern Timestep	1:00
Pattern Start	0:00
Report Timestep	1:00
Report Start	0:00
Start Clocktime	12 am
Statistic		NONE

[COORDINATES]
;Node	X - Coord	Y - Coord
JU1	26.8414083707	-46.8661891556
JU3	-4.72995412959	11.9827664677
JU4	-39.6862066829	-39.269306681
JU6	5.34727419417	-3.09478985347
JU7	-17.9386529343	-44.6448403327
JU8	6.39926183472	-23.6708318082
JU9	18.2586917199	-40.8386948157
JU10	1.03747800936	31.0242591777
JU11	-0.0836026550333	-34.6110485819
JU12	12.9625304999	-32.9960882103
JU13	-11.1142916918	-51.0686343113
JU14	-32.3766823701	49.2657457582
JU15	34.2490769425	-51.4029155609
JU16	48.5394804683	35.5564002542
JU17	-3.10379958485	-44.7533217182
JU18	-45.844424996	-7.86920894646
JU19	28.2633276084	47.5712561521
JU20	2.06460946646	52.3281181045
JU21	-4.14522367482	57.2389044296
JU22	-55.6675204375	22.5830486013
JU23	-22.0218875804	-51.7017728896
JU24	-37.7022458072	-0.242332623406
JU25	27.1154205823	-55.4612738247
JU26	57.7424334803	-16.2967150195
JU27	33.8160700557	-12.6265971611
JU28	-36.5340932358	16.7024220021
JU29	27.5819237146	37.2590640265
JU30	-34.1991640859	-8.66207389032
JU31	-32.5870219536	40.7036429272
JU32	34.3775467737	31.6697218475
JU33	37.006381432	42.9583259817
JU34	29.324118342	-4.597390898
JU35	29.8668930098	3.71341840265
JU36	-1.41917325896	-20.6317709782
JU37	-43.3428318388	34.8762077935
JU38	-33.4307606474	-44.7080340959
JU39	-52.7337824421	31.0898811211
JU40	-2.04042907622	3.01692413313
JU41	-28.3192764154	32.0319817988
JU42	33.8312431747	20.8996356876
JU43	16.9231363535	-9.34157821822
JU44	55.2007605385	-8.73034768978
JU45	-5.31665256031	23.8954938776
JU46	-11.957865893	37.2730009325
JU47	-25.5510272642	-38.9864623377
JU48	-40.6423426943	-47.8296496406
JU49	-10.4912747409	50.7247629965
JU50	43.6430319874	-5.26844480181
JU51	47.6165635396	24.5114058771
JU52	-35.6451875056	27.3374206563
JU53	-40.6683310129	-13.9141754027
JU54	36.1656668578	-44.20231233
JU55	48.293303395	-15.1383494526
JU56	-49.0331374888	16.8134618949
JU57	-0.229175793116	41.3577117293
JU58	-51.6963420545	-17.0023349182
R5	41.5593345418	29.8818210238
T2	-57.6988255435	-21.4880207039

[VALVES]
;ID	Node1	Node2	Diameter	Type	Setting	MinorLoss

[PATTERNS]
;ID	Multipliers
1	1.0000	1.0000	1.0000	0.9000	0.9000	0.9000
1	.7000	.7000	0.7000	0.6000	0.6000	0.6000
1	1.2000	1.2000	1.2000	1.3000	1.3000	1.3000
1	1.2000	1.2000	1.2000	1.1000	1.1000	1.1000
2	1.0000	1.0000	1.0000	1.0000	1.0000	1.0000
2	1.0000	1.0000	1.0000	1.0000	1.0000	1.0000
2	1.0000	1.0000	1.0000	1.0000	1.0000	1.0000
2	1.0000	1.0000	1.0000	1.0000	1.0000	1.0000

[TAGS]

[DEMANDS]

[STATUS]

[CURVES]
;ID 	X-Value	 Y-Value
1	10	280

[CONTROLS]

[RULES]

[ENERGY]
