[TITLE]
Generated synthetic network;

[JUNCTIONS]
;ID	Elev	Demand	Pattern
JU2	715.257060119	128.117706748	;
JU3	714.663985445	128.148361315	;
JU4	713.964531195	128.047768705	;
JU5	715.909348214	128.278633138	;
JU6	714.877944159	128.635461198	;
JU7	714.881064892	127.781003229	;
JU8	716.987589029	128.30436155	;
JU9	715.242608299	128.168862128	;
JU10	714.04108767	128.029531387	;
JU11	714.342007623	128.597489066	;
JU12	713.824578484	128.451759233	;
JU13	713.915181587	128.604498358	;
JU14	713.848723625	128.252072129	;
JU15	714.752403743	128.33258361	;
JU16	714.741767329	128.673078554	;
JU18	713.90701733	127.919487446	;
JU19	715.121006663	128.157248497	;
JU20	716.836792501	128.419916159	;
JU21	714.960522782	128.133034032	;
JU22	714.727885537	127.863166255	;
JU23	716.986127793	128.281675441	;
JU24	726.855695588	128.210535357	;
JU25	713.048996341	128.435060446	;
JU26	713.652990439	128.111130588	;
JU27	716.159347108	128.50455574	;
JU28	713.652990439	128.111130588	;
JU29	714.89821167	128.634400676	;
JU30	716.89279307	128.267824318	;
JU31	715.243534353	128.090355657	;
JU32	714.933942452	128.201267762	;
JU33	714.730657425	128.702530383	;
JU34	715.248129541	128.261628979	;
JU35	715.850134793	128.08705218	;
JU36	715.55357981	128.142096841	;
JU37	712.448071888	128.535582149	;
JU38	712.442142791	128.568345635	;
JU39	713.44879037	128.058999315	;
JU40	715.374791711	128.24899477	;
JU41	715.765955907	128.209186175	;
JU42	716.786367104	128.06399366	;
JU43	716.273898858	128.566515638	;
JU44	715.304437836	128.157065342	;
JU45	716.855388176	128.444509744	;
JU46	714.93313991	128.268812451	;
JU47	724.095347676	128.222616867	;
JU48	717.319962695	128.464073231	;
JU49	714.1674382	128.405992761	;
JU50	715.370742568	128.137627028	;
JU51	714.693039038	128.192475969	;
JU52	717.261471817	128.156236012	;
JU53	713.657481607	128.087895875	;
JU54	720.226108373	128.376016696	;
JU55	713.385715294	128.1939598	;
JU56	724.005711426	128.268344616	;
JU57	714.698932883	128.141032717	;
JU58	715.100106383	128.42974443	;
JU59	715.111869038	128.166886383	;
JU60	715.492645827	128.114128652	;
JU61	712.352100118	128.543099949	;
JU62	712.445251549	128.632231779	;
JU63	712.965540631	128.271535895	;
JU64	713.197210137	128.319521654	;
JU65	714.98208137	128.278199216	;
JU66	715.639321828	128.319583311	;
JU67	713.695776781	128.311837587	;
JU68	715.79480747	128.162883372	;
JU69	715.872329231	128.29803741	;
JU70	714.645811541	128.170270194	;
JU71	718.530485449	128.236178652	;
JU72	713.889717421	128.256398493	;
JU73	715.211556642	128.157656009	;
JU74	713.544188034	128.167458756	;
JU75	714.779845838	128.654806766	;
JU76	712.348676271	128.423150073	;
JU77	712.421186502	128.593977285	;
JU78	714.082867517	127.998829551	;
JU80	714.922939441	128.622037812	;
JU81	715.273523068	128.162963735	;
JU82	712.417520262	128.599884478	;
JU83	715.369714106	128.374663871	;
JU84	713.648137399	128.378523646	;
JU85	716.936723488	128.033617036	;
JU86	714.729828147	128.504241399	;
JU87	714.986925525	128.21023507	;
JU88	715.717064649	128.241233342	;
JU89	715.790115958	128.26939762	;
JU90	715.642069962	128.263813954	;
JU91	713.325203797	128.176780198	;
JU92	712.348676271	128.423150073	;
JU93	713.444082103	128.317912972	;
JU94	715.582453835	128.259196195	;
JU95	713.296592187	128.301259601	;
JU96	725.054174175	128.230447449	;
JU97	714.67726445	128.068707085	;
JU98	714.956109827	128.299440075	;
JU99	719.677187592	128.428898817	;
JU100	715.15396581	128.25890361	;
JU101	714.194539369	128.375029523	;
JU102	714.396343215	128.112209512	;
JU103	712.427986104	128.608697847	;
JU104	723.015787796	128.236187179	;
JU105	714.952553468	128.168032171	;
JU106	713.325203797	128.176780198	;
JU107	714.267006883	128.19417427	;
JU108	723.510749611	128.252265898	;
JU109	714.867242556	128.305391413	;
JU110	715.858232548	128.287112449	;
JU111	724.741539669	128.295800332	;
JU112	714.350712641	127.968281509	;
JU113	724.897856922	128.263123891	;
JU114	718.76176014	128.093782086	;
JU115	714.881064892	127.781003229	;
JU116	713.022226526	128.36749383	;
JU117	714.539299089	127.915723882	;
JU118	717.731671579	128.461382476	;
JU119	714.779845838	128.654806766	;
JU120	715.135077953	128.501706688	;
JU121	713.553135989	128.073447595	;
JU122	720.000957795	128.25893131	;
JU123	719.6857819	128.397933441	;
JU124	716.09012892	128.061986346	;
JU125	714.843847008	128.653343131	;
JU126	717.261471817	128.156236012	;
JU127	723.157633812	128.3183822	;
JU128	715.011522912	128.525891121	;
JU129	716.741797231	128.075494277	;

[RESERVOIRS]
;ID	Head	Pattern
R79	7056	;

[TANKS]
;ID	Elevation	InitLevel	MinLevel	MaxLevel	Diameter	MinVol	VolCurve
T1	782.543125534	3.25	1.00	10.00	30.00	0.00;
T17	781.047192625	3.25	1.00	10.00	30.00	0.00;

[PIPES]
;ID	Node1	Node2	Length	Diameter	Roughness	MinorLoss	Status
PI1	T1	JU52	680.017683207	12	120	;
PI2	JU2	JU60	357.024344139	12	140	;
PI3	JU2	JU21	2200.8622798	12	140	;
PI4	JU3	JU21	2325.6164939	12	120	;
PI5	JU4	JU10	486.295257687	12	120	;
PI6	JU4	JU102	2790.86052126	12	120	;
PI7	JU5	JU89	2603.82155286	12	140	;
PI8	JU5	JU90	401.888357239	12	140	;
PI9	JU6	JU16	2533.86627642	12	130	;
PI10	JU6	JU120	442.179885459	12	140	;
PI11	JU6	JU125	3156.71195971	12	140	;
PI12	JU7	JU115	2819.66821569	12	130	;
PI13	JU7	JU22	207.021923106	12	120	;
PI14	JU8	JU34	1366.26252943	12	130	;
PI15	JU8	JU54	1424.33107507	12	120	;
PI16	JU9	JU73	3012.94770577	12	140	;
PI17	JU9	JU59	3057.93647381	12	120	;
PI18	JU9	JU44	2113.90951937	12	130	;
PI19	JU9	JU81	3368.59579773	12	130	;
PI20	JU10	JU102	836.081736125	12	120	;
PI21	JU10	JU78	801.750852257	12	140	;
PI22	JU11	JU13	2496.04012469	12	130	;
PI23	JU11	JU15	2751.41782026	12	130	;
PI24	JU12	JU84	3415.08192914	12	130	;
PI25	JU12	JU20	1769.31375684	12	130	;
PI26	JU12	JU86	1169.9574972	12	120	;
PI27	JU13	JU49	1809.68946727	12	130	;
PI28	JU14	JU72	1153.32148086	12	120	;
PI29	JU14	JU51	2009.6009324	12	130	;
PI30	JU15	JU65	282.104174363	12	140	;
PI31	JU15	JU109	1983.73837477	12	120	;
PI32	JU15	JU46	2921.13630443	12	120	;
PI33	JU16	JU33	1695.80749063	12	130	;
PI34	JU16	JU75	157.888178359	12	120	;
PI35	JU18	JU78	296.393702295	12	120	;
PI36	JU19	JU73	1628.06288114	12	140	;
PI37	JU19	JU50	1433.3028302	12	120	;
PI38	JU19	JU51	2619.760214	12	140	;
PI39	JU20	JU54	3009.70091826	12	140	;
PI40	JU22	JU112	2665.10508225	12	140	;
PI41	JU22	JU117	1581.57605756	12	140	;
PI42	JU23	JU122	277.035799632	12	130	;
PI43	JU23	JU30	1801.68307689	12	140	;
PI44	JU23	JU110	347.849372288	12	140	;
PI45	JU24	JU56	1181.72370666	12	120	;
PI46	JU24	JU47	2635.83242158	12	130	;
PI47	JU25	JU95	1653.09605163	12	120	;
PI48	JU26	JU107	2463.27539089	12	140	;
PI49	JU27	JU48	241.258506261	12	130	;
PI50	JU27	JU118	160.197259258	12	130	;
PI51	JU28	JU107	816.866274106	12	120	;
PI52	JU29	JU43	2612.81580228	12	140	;
PI53	JU29	JU86	2810.60526116	12	140	;
PI54	JU30	JU71	162.315703738	12	120	;
PI55	JU30	JU110	3398.69472679	12	130	;
PI56	JU31	JU105	1075.77645315	12	140	;
PI57	JU31	JU42	2679.54099442	12	120	;
PI58	JU31	JU124	956.649655455	12	130	;
PI59	JU32	JU57	3343.69707741	12	140	;
PI60	JU32	JU87	1767.04359029	12	130	;
PI61	JU32	JU102	1636.59031237	12	140	;
PI62	JU32	JU105	2385.24748456	12	140	;
PI63	JU33	JU125	2221.08610159	12	130	;
PI64	JU34	JU98	2628.11719469	12	120	;
PI65	JU34	R79	366.429871013	12	130	;
PI66	JU35	JU60	874.050332371	12	130	;
PI67	JU36	JU41	2648.49753386	12	130	;
PI68	JU36	JU98	851.445811145	12	140	;
PI69	JU36	JU68	516.055119807	12	140	;
PI70	JU37	JU38	1024.74888399	12	130	;
PI71	JU38	JU77	3282.93008768	12	130	;
PI72	JU39	JU121	1803.06472592	12	120	;
PI73	JU39	JU53	2229.7991447	12	130	;
PI74	JU40	JU65	851.129969307	12	120	;
PI75	JU40	JU90	1451.96757132	12	130	;
PI76	JU40	JU100	2553.1038656	12	140	;
PI77	JU40	JU94	139.527196082	12	140	;
PI78	JU41	JU66	2015.15592637	12	140	;
PI79	JU42	JU129	1271.61791775	12	130	;
PI80	JU42	JU114	2954.60460854	12	140	;
PI81	JU43	JU99	2686.40493802	12	130	;
PI82	JU43	JU86	2872.71762971	12	140	;
PI83	JU44	JU50	3331.05153401	12	140	;
PI84	JU44	JU59	3402.1617844	12	120	;
PI85	JU44	JU81	399.252141365	12	140	;
PI86	JU45	JU48	794.133662704	12	120	;
PI87	JU45	JU99	2233.09663615	12	130	;
PI88	JU45	JU69	3226.2175808	12	140	;
PI89	JU46	JU65	2595.10039398	12	140	;
PI90	JU46	JU100	2568.34015447	12	130	;
PI91	JU47	JU104	947.435205214	12	140	;
PI92	JU47	JU71	257.610090609	12	120	;
PI93	JU47	JU56	1098.80936539	12	130	;
PI94	JU48	JU123	1452.30690544	12	130	;
PI95	JU48	JU118	324.389845222	12	120	;
PI96	JU49	JU72	2637.30376337	12	140	;
PI97	JU49	JU69	2285.19810537	12	140	;
PI98	JU50	JU60	1997.71662478	12	130	;
PI99	JU50	JU73	2303.18739929	12	120	;
PI100	JU51	JU59	881.859211078	12	130	;
PI101	JU52	JU126	3423.8669612	12	120	;
PI102	JU52	JU71	2841.53627614	12	140	;
PI103	JU53	JU121	1540.53721154	12	120	;
PI104	JU53	JU74	1085.99422248	12	120	;
PI105	JU53	JU97	1952.05598434	12	140	;
PI106	JU54	JU111	279.783450151	12	120	;
PI107	JU55	JU74	3314.2351286	12	140	;
PI108	JU56	JU123	2386.03400544	12	130	;
PI109	JU56	JU108	1406.53700407	12	130	;
PI110	JU57	JU97	2541.81600811	12	140	;
PI111	JU58	JU120	1022.07701413	12	140	;
PI112	JU58	JU128	2957.62289974	12	120	;
PI113	JU58	JU98	1301.35570515	12	140	;
PI114	JU58	JU83	3250.99587766	12	140	;
PI115	JU59	JU73	1406.59520131	12	120	;
PI116	JU61	JU82	377.442171397	12	120	;
PI117	JU61	JU76	3155.23442621	12	130	;
PI118	JU61	JU77	2100.38980713	12	130	;
PI119	JU62	JU82	766.846866977	12	120	;
PI120	JU62	JU103	2616.448525	12	140	;
PI121	JU63	JU64	970.089695389	12	140	;
PI122	JU63	JU93	1296.60735384	12	140	;
PI123	JU64	JU84	2023.47515361	12	140	;
PI124	JU65	JU109	1638.38656222	12	120	;
PI125	JU66	JU88	2515.03461474	12	140	;
PI126	JU66	JU83	2006.96195451	12	120	;
PI127	JU66	JU120	2741.89589398	12	130	;
PI128	JU67	JU116	2874.43784897	12	120	;
PI129	JU67	JU110	292.529303899	12	120	;
PI130	JU68	JU88	2507.7966571	12	130	;
PI131	JU69	JU107	670.921991683	12	130	;
PI132	JU69	JU71	1825.97728523	12	130	;
PI133	JU70	JU105	1753.55152656	12	120	;
PI134	JU70	JU102	2033.87988727	12	130	;
PI135	JU72	JU107	1721.31494139	12	120	;
PI136	JU74	JU112	2166.12297532	12	130	;
PI137	JU74	JU91	2419.52085661	12	140	;
PI138	JU74	JU95	1989.21170388	12	130	;
PI139	JU75	JU80	2034.91038652	12	140	;
PI140	JU75	JU119	3205.19682205	12	120	;
PI141	JU76	JU116	2797.03005231	12	130	;
PI142	JU76	JU92	1512.16763784	12	130	;
PI143	JU77	JU82	592.240767059	12	120	;
PI144	JU77	JU103	1463.33493345	12	140	;
PI145	JU78	JU97	3174.13379247	12	120	;
PI146	JU80	JU120	3294.8720313	12	140	;
PI147	JU80	JU128	3109.11762826	12	120	;
PI148	JU80	JU125	1370.51820015	12	130	;
PI149	JU82	JU103	1637.84485111	12	140	;
PI150	JU84	JU101	2107.62766733	12	140	;
PI151	JU85	JU114	1233.95786888	12	130	;
PI152	JU85	JU124	1215.46284319	12	120	;
PI153	JU86	JU101	352.098633185	12	140	;
PI154	JU87	JU105	2818.82562262	12	120	;
PI155	JU89	JU94	2527.09609157	12	120	;
PI156	JU91	JU106	2617.97789111	12	130	;
PI157	JU93	JU101	2817.17716115	12	140	;
PI158	JU96	JU113	2188.59162434	12	120	;
PI159	JU96	JU114	2831.05059212	12	130	;
PI160	JU96	JU111	3364.80665462	12	140	;
PI161	JU96	JU127	471.622166919	12	120	;
PI162	JU97	JU129	1732.47629655	12	130	;
PI163	JU98	JU101	1410.49829294	12	140	;
PI164	JU99	JU127	1346.02269595	12	120	;
PI165	JU104	JU122	1976.5799919	12	130	;
PI166	JU104	JU108	1774.45117833	12	130	;
PI167	JU111	JU113	299.103733558	12	120	;
PI168	JU111	JU127	1610.71605365	12	130	;
PI169	JU112	JU117	841.745058044	12	120	;
PI170	JU114	JU129	2285.40060984	12	130	;
PI171	JU118	JU123	1328.61613343	12	140	;

[PUMPS]
;ID	Node1	Node2	Parameters
PU1	JU54	JU99	HEAD 1 	PATTERN 2	;
PU2	JU57	T17	HEAD 1 	PATTERN 3	;

[TIMES]
Duration		24:00
Hydraulic Timestep	1:00
Quality Timestep	0:05
Pattern Timestep	1:00
Pattern Start	0:00
Report Timestep	1:00
Report Start	0:00
Start Clocktime	12 am
Statistic		NONE

[COORDINATES]
;Node	X - Coord	Y - Coord
JU2	87.0216872898	8.40705666948
JU3	92.2521458121	-4.72517538129
JU4	-13.7819538027	-95.0957936677
JU5	38.1159934455	88.6113386069
JU6	-30.6783920395	82.6882637066
JU7	-91.5657945202	-14.014137246
JU8	-29.4319418531	24.1410802824
JU9	67.0182404145	55.1310940857
JU10	-21.0538431542	-90.4030648541
JU11	7.15621511758	42.0554229328
JU12	-60.8064545068	14.401683085
JU13	10.5850266132	32.6507985219
JU14	41.3180254732	34.9370595996
JU15	11.38972274	53.8355636441
JU16	-14.9199554158	86.0583219472
JU18	-42.6143166336	-84.2530560097
JU19	64.7857001116	30.4400528478
JU20	-45.4670828273	15.1560148241
JU21	89.7099585245	0.583317275345
JU22	-88.708999264	-24.1078453077
JU23	46.2570013448	-43.177278169
JU24	26.3318453328	-22.0822044131
JU25	-68.6929086029	-21.530860853
JU26	36.2765128232	19.9171409111
JU27	-1.74603761706	-6.31664762398
JU28	44.8079650692	11.9138332271
JU29	-54.7740909009	-1.8229426297
JU30	49.6624033495	-32.8254765461
JU31	0.8734547062	-60.4370422503
JU32	0.194477251599	-79.5272678521
JU33	-17.4737486022	92.9964218554
JU34	-35.0545680452	34.1813630404
JU35	92.0293663672	19.0510087674
JU36	-65.6710086597	47.57128305
JU37	82.5623209446	-19.8532300587
JU38	79.0859912718	-25.96823737
JU39	-64.9404755506	-63.6208321202
JU40	26.82589896	76.2974717365
JU41	-62.6955068695	56.9105042089
JU42	-14.9322628191	-53.1219558152
JU43	-45.0825860952	1.55721376601
JU44	75.004447286	49.6913945955
JU45	2.02296482151	8.1802540489
JU46	11.8036004468	66.0168243203
JU47	33.1334731225	-25.6443533743
JU48	5.59230461142	-3.17223628428
JU49	19.7463052826	23.7933990701
JU50	77.2382958053	32.0948847445
JU51	52.691310672	37.2174173707
JU52	57.4421047392	-7.26370631586
JU53	-56.3276158411	-59.4174378639
JU54	-31.318901355	10.5032130542
JU55	-66.722004405	-36.6111756662
JU56	19.7765246996	-27.4587124287
JU57	-18.6475800288	-72.8389704312
JU58	-40.1842363054	54.8504327203
JU59	60.7203275954	47.7303837301
JU60	85.0913702489	18.9579721077
JU61	69.076197161	-55.7905268424
JU62	87.1741091386	-46.7794774173
JU63	-89.626835541	21.5146787316
JU64	-86.2254151924	14.2527411978
JU65	20.6278896208	62.5691523449
JU66	-56.6444115754	66.7243304532
JU67	45.809519134	-63.4029837031
JU68	-74.0596020097	54.6030682143
JU69	24.7006145503	7.57706118171
JU70	7.62928203407	-88.3503478456
JU71	43.0832032423	-12.8318217597
JU72	31.7971950713	27.6742558657
JU73	68.3371419751	39.9137565949
JU74	-67.7858747489	-42.815165713
JU75	-10.8109832962	75.9398071604
JU76	58.8600866337	-70.0968510647
JU77	74.7409531064	-39.0543704653
JU78	-35.2976368719	-81.7140267308
JU80	-23.3174112783	70.0423040501
JU81	73.7585623274	60.2526890462
JU82	78.202625221	-48.6731284467
JU83	-48.8802429819	60.6790818532
JU84	-74.8966671441	15.035443073
JU85	-7.68688368851	-43.5734922139
JU86	-59.5799627976	6.55009252217
JU87	14.4144808359	-80.8404362768
JU88	-69.7441810252	63.9046464912
JU89	43.66751429	82.435205872
JU90	29.8172675811	86.9298071231
JU91	-56.9238081751	-40.0907933142
JU92	56.4106403489	-77.9121087851
JU93	-82.0266589132	26.63554013
JU94	38.4092279624	76.3267010787
JU95	-68.1369652623	-28.7362584191
JU96	-26.3867194267	-23.814642209
JU97	-36.6770704766	-66.3797803267
JU98	-52.2469380868	39.3014064773
JU99	-21.3439054196	4.68910962994
JU100	16.2403718273	76.0661012183
JU101	-68.2752983758	24.4987718246
JU102	-5.17334104045	-90.9156200886
JU103	84.0617967559	-40.1924330702
JU104	29.6240172295	-41.1345517157
JU105	10.0288983797	-74.9281994409
JU106	-51.1668270794	-37.1212023245
JU107	36.1626620304	14.3729597542
JU108	20.7612409967	-39.3207425698
JU109	20.2152799573	53.6089029735
JU110	49.3121936185	-50.3386285383
JU111	-31.5730144741	-10.7539543746
JU112	-82.2531090919	-34.8785413656
JU113	-34.749450976	-20.5921077619
JU114	-20.278439968	-41.614754146
JU115	-93.40669744	-7.91530888482
JU116	48.3885075552	-71.5864992741
JU117	-89.5744504153	-31.7217515278
JU118	2.97230885922	-12.1287775527
JU119	-3.43027127725	77.6920865011
JU120	-38.8492665422	70.3753110121
JU121	-60.8172584424	-67.5163197152
JU122	36.4817048144	-47.9071648616
JU123	10.8083934882	-16.1582853269
JU124	0.0879350699175	-50.8169628352
JU125	-23.8827397103	84.8054719538
JU126	65.0117202504	-8.40315146239
JU127	-22.7746457995	-9.93525085752
JU128	-27.6781765951	58.4580062995
JU129	-27.0574950048	-53.4881014081
R79	-26.8067568878	36.6635270731
T1	62.1952387672	-1.31139087975
T17	-24.3623691012	-73.945708602

[VALVES]
;ID	Node1	Node2	Diameter	Type	Setting	MinorLoss

[PATTERNS]
;ID	Multipliers
1	1.0000	1.0000	1.0000	0.9000	0.9000	0.9000
1	.7000	.7000	0.7000	0.6000	0.6000	0.6000
1	1.2000	1.2000	1.2000	1.3000	1.3000	1.3000
1	1.2000	1.2000	1.2000	1.1000	1.1000	1.1000
2	1.0000	1.0000	1.0000	1.0000	1.0000	1.0000
2	1.0000	1.0000	1.0000	1.0000	1.0000	1.0000
2	1.0000	1.0000	1.0000	1.0000	1.0000	1.0000
2	1.0000	1.0000	1.0000	1.0000	1.0000	1.0000
3	1.0000	1.0000	1.0000	1.0000	1.0000	1.0000
3	1.0000	1.0000	1.0000	1.0000	1.0000	1.0000
3	1.0000	1.0000	1.0000	1.0000	1.0000	1.0000
3	1.0000	1.0000	1.0000	1.0000	1.0000	1.0000

[TAGS]

[DEMANDS]

[STATUS]

[CURVES]
;ID 	X-Value	 Y-Value
1	10	280

[CONTROLS]

[RULES]

[ENERGY]
