[TITLE]
Generated synthetic network;

[JUNCTIONS]
;ID	Elev	Demand	Pattern
JU1	712.410410157	128.643024687	;
JU3	711.448203601	127.435395176	;
JU4	713.556141234	128.521988269	;
JU5	712.489194814	128.189908462	;
JU6	714.629157	128.159656252	;
JU7	715.549618854	129.045211504	;
JU8	712.86254018	128.621247055	;
JU9	712.137026192	128.264540332	;
JU10	711.927185992	128.071182962	;
JU11	723.150756817	127.64900346	;
JU12	712.313110503	128.227224397	;
JU13	715.005659413	128.893274188	;
JU14	712.410410157	128.643024687	;
JU15	732.364377868	127.60995319	;
JU16	712.410410157	128.643024687	;
JU17	718.251203405	127.753021271	;
JU18	712.86254018	128.621247055	;
JU19	711.678373207	127.83220426	;
JU20	711.563288404	127.633799718	;
JU21	711.8027796	127.951693611	;
JU22	714.439593194	127.986854939	;
JU24	722.17202913	127.824195964	;
JU25	714.03887224	128.055078341	;
JU26	713.133821487	127.967657079	;
JU27	722.661392973	127.736599712	;
JU28	713.282535793	128.452789512	;
JU29	713.90129029	127.717661144	;
JU30	714.020926641	128.058082942	;
JU31	715.520617298	129.055785294	;
JU32	714.469979874	128.020142386	;
JU33	714.401947085	128.048325138	;
JU34	727.757567342	127.629478325	;
JU35	713.676350807	127.937094598	;
JU36	714.479472446	128.017278087	;
JU37	712.910713638	128.096724516	;
JU38	715.069196464	128.919979856	;
JU39	712.86254018	128.621247055	;
JU40	714.389682975	128.73065524	;
JU41	714.629157	128.159656252	;
JU42	712.971739796	128.313943591	;
JU43	714.030037794	128.025396405	;
JU44	713.371427988	128.222817475	;
JU45	713.90129029	127.717661144	;
JU46	713.402822205	128.000529702	;
JU47	713.293532222	128.016909557	;
JU48	715.57900018	127.984534859	;
JU49	713.133821487	127.967657079	;
JU50	713.371427988	128.222817475	;
JU51	714.47472616	128.018710237	;
JU52	715.294906881	128.987882575	;
JU53	713.972912104	128.626321754	;
JU54	716.915101793	127.868778065	;
JU55	713.972912104	128.626321754	;
JU56	732.364377868	127.60995319	;
JU57	714.029945558	128.046185896	;
JU58	713.396105622	128.032024714	;

[RESERVOIRS]
;ID	Head	Pattern
R23	7056	;

[TANKS]
;ID	Elevation	InitLevel	MinLevel	MaxLevel	Diameter	MinVol	VolCurve
T2	767.349527001	3.25	1.00	10.00	30.00	0.00;

[PIPES]
;ID	Node1	Node2	Length	Diameter	Roughness	MinorLoss	Status
PI1	JU1	JU16	2084.4546007	12	140	;
PI2	JU1	JU42	789.231189757	12	130	;
PI3	T2	JU6	3132.51475349	12	140	;
PI4	JU3	JU20	1181.05444986	12	140	;
PI5	JU4	JU28	2959.00679155	12	130	;
PI6	JU4	JU53	2723.04357183	12	130	;
PI7	JU5	JU12	3275.6709781	12	130	;
PI8	JU5	JU37	2776.82757707	12	130	;
PI9	JU6	JU48	2709.1475389	12	140	;
PI10	JU6	JU33	2307.0469832	12	120	;
PI11	JU6	JU41	452.949886277	12	120	;
PI12	JU7	JU13	2688.73136259	12	140	;
PI13	JU7	JU31	326.637207293	12	130	;
PI14	JU8	JU18	829.514130659	12	140	;
PI15	JU8	JU28	661.444071441	12	130	;
PI16	JU8	JU39	2917.68563025	12	130	;
PI17	JU9	JU12	3079.51607223	12	120	;
PI18	JU10	JU42	1241.49752093	12	140	;
PI19	JU10	JU19	3026.80501515	12	130	;
PI20	JU10	JU21	2413.3619631	12	120	;
PI21	JU11	JU17	1529.88545462	12	140	;
PI22	JU11	JU34	1829.51309653	12	130	;
PI23	JU11	JU27	1255.11735992	12	120	;
PI24	JU13	JU40	346.251233707	12	140	;
PI25	JU13	JU38	3254.89347011	12	130	;
PI26	JU14	JU16	2226.38492858	12	140	;
PI27	JU14	JU42	2216.2667247	12	120	;
PI28	JU15	JU56	694.909606459	12	130	;
PI29	JU15	JU34	398.856022745	12	120	;
PI30	JU17	JU48	834.578761816	12	120	;
PI31	JU17	JU54	100.427679758	12	130	;
PI32	JU19	JU20	616.561987834	12	120	;
PI33	JU19	JU21	1320.73055936	12	130	;
PI34	JU22	JU36	326.815176375	12	130	;
PI35	R23	JU31	612.31727439	12	130	;
PI36	JU24	JU27	2805.39938628	12	120	;
PI37	JU25	JU57	3041.58233385	12	120	;
PI38	JU25	JU43	218.451213787	12	130	;
PI39	JU25	JU30	618.807156796	12	140	;
PI40	JU26	JU49	121.2993956	12	140	;
PI41	JU26	JU58	2797.32755498	12	130	;
PI42	JU28	JU44	1953.61321213	12	140	;
PI43	JU29	JU35	2009.75759516	12	120	;
PI44	JU29	JU45	1674.15481964	12	130	;
PI45	JU30	JU57	587.240160415	12	140	;
PI46	JU31	JU52	2566.49774321	12	120	;
PI47	JU31	JU38	1883.66257846	12	120	;
PI48	JU32	JU33	2737.85098292	12	130	;
PI49	JU32	JU51	2684.22102668	12	140	;
PI50	JU32	JU36	1370.28814836	12	120	;
PI51	JU33	JU43	2087.57918923	12	140	;
PI52	JU33	JU36	1529.59870124	12	130	;
PI53	JU35	JU58	3068.87266866	12	120	;
PI54	JU35	JU43	2978.39932622	12	140	;
PI55	JU35	JU47	1378.85798366	12	130	;
PI56	JU36	JU51	992.454327617	12	140	;
PI57	JU37	JU47	1736.31357005	12	140	;
PI58	JU38	JU40	1480.99615529	12	120	;
PI59	JU38	JU52	1991.91494517	12	130	;
PI60	JU40	JU55	620.880935981	12	130	;
PI61	JU40	JU53	2175.09686305	12	130	;
PI62	JU42	JU48	1242.17817852	12	130	;
PI63	JU43	JU57	1742.29484751	12	130	;
PI64	JU44	JU50	2728.15690201	12	130	;
PI65	JU44	JU58	1152.42809915	12	120	;
PI66	JU46	JU58	2705.30670833	12	130	;
PI67	JU48	JU54	994.37155202	12	140	;

[PUMPS]
;ID	Node1	Node2	Parameters
PU1	JU55	JU4	HEAD 1 	PATTERN 2	;

[TIMES]
Duration		24:00
Hydraulic Timestep	1:00
Quality Timestep	0:05
Pattern Timestep	1:00
Pattern Start	0:00
Report Timestep	1:00
Report Start	0:00
Start Clocktime	12 am
Statistic		NONE

[COORDINATES]
;Node	X - Coord	Y - Coord
JU1	-38.7978151506	50.3167626838
JU3	-78.1110248304	11.8278734339
JU4	-43.5733862039	-36.7293848123
JU5	50.8979381549	-48.9817797568
JU6	13.0244423644	29.3755318537
JU7	-6.54278568752	-61.0480250539
JU8	-54.1183473198	-17.2430610234
JU9	64.6774395857	-52.5996925555
JU10	-49.7324638414	26.8343822397
JU11	1.78056202238	66.8735077704
JU12	58.4290772925	-52.7424129334
JU13	-19.1288505739	-58.8325524718
JU14	-45.3965419979	45.4487109077
JU15	24.3291190755	71.889566396
JU16	-46.4832238597	53.6286417683
JU17	-5.40337265694	53.124651417
JU18	-59.5663959167	-11.77996686
JU19	-62.2467828629	20.7099409405
JU20	-72.4240628458	15.657086673
JU21	-54.7051601268	20.0355686759
JU22	50.6896237731	47.4184256986
JU24	-10.0133753575	80.5771337818
JU25	63.0502553642	0.141586376277
JU26	9.4620856156	-32.0054366448
JU27	-5.10220192093	75.744758467
JU28	-38.6366661463	-21.7713472352
JU29	25.5733092767	-9.23690539085
JU30	70.279727806	-5.16797924224
JU31	-2.5036780588	-71.1822920338
JU32	51.0963357587	29.7316532181
JU33	38.8701042441	23.7184699477
JU34	14.3204206874	70.1705279987
JU35	30.9979242446	-17.141549395
JU36	48.9103375428	38.0906348547
JU37	44.9394957941	-41.3446929548
JU38	-18.2034799383	-68.5913438174
JU39	-62.3857587643	-19.744091674
JU40	-32.3609920485	-56.5199762986
JU41	6.05023777704	25.6742733692
JU42	-35.0584187535	38.5091940949
JU43	48.1208432371	0.195847883657
JU44	-17.9556381694	-17.5580009903
JU45	21.4800846887	-3.8767372386
JU46	0.994516253063	-14.3876961634
JU47	39.0892076546	-31.1005922063
JU48	-10.3684506611	38.6423431927
JU49	12.7755953758	-38.7654152667
JU50	-20.1608320745	-10.3775450611
JU51	58.1415686756	35.8691540672
JU52	-10.3617344485	-76.3785743251
JU53	-37.882224968	-45.2741712529
JU54	-10.8055920445	47.1734986686
JU55	-44.8785660749	-48.9560145239
JU56	31.0958602291	72.5259063989
JU57	61.4171015207	-6.66057254136
JU58	5.60058643962	-20.4656174001
R23	7.33596291777	-73.433832084
T2	14.0270604164	22.089733197

[VALVES]
;ID	Node1	Node2	Diameter	Type	Setting	MinorLoss

[PATTERNS]
;ID	Multipliers
1	1.0000	1.0000	1.0000	0.9000	0.9000	0.9000
1	.7000	.7000	0.7000	0.6000	0.6000	0.6000
1	1.2000	1.2000	1.2000	1.3000	1.3000	1.3000
1	1.2000	1.2000	1.2000	1.1000	1.1000	1.1000
2	1.0000	1.0000	1.0000	1.0000	1.0000	1.0000
2	1.0000	1.0000	1.0000	1.0000	1.0000	1.0000
2	1.0000	1.0000	1.0000	1.0000	1.0000	1.0000
2	1.0000	1.0000	1.0000	1.0000	1.0000	1.0000

[TAGS]

[DEMANDS]

[STATUS]

[CURVES]
;ID 	X-Value	 Y-Value
1	10	280

[CONTROLS]

[RULES]

[ENERGY]
