[TITLE]
Generated synthetic network;

[JUNCTIONS]
;ID	Elev	Demand	Pattern
JU1	713.979119665	128.569428595	;
JU2	715.890246476	128.238341401	;
JU3	714.103155317	128.420723709	;
JU4	715.642671018	128.196865029	;
JU5	716.151513418	128.206149631	;
JU6	715.27389537	128.214520232	;
JU7	716.880811659	128.306656126	;
JU8	716.332473589	128.201688248	;
JU9	716.211423488	128.25215922	;
JU10	716.075589636	128.392829907	;
JU11	715.521536583	128.170462372	;
JU12	715.063046862	128.104954554	;
JU13	715.853636165	128.28650312	;
JU14	716.706175746	128.150699793	;
JU15	714.911747071	128.203028757	;
JU16	714.542084533	128.029750189	;
JU17	714.015863704	128.435438546	;
JU18	714.859758433	128.445453539	;
JU19	715.462547345	128.228205338	;
JU20	716.824553715	128.176400338	;
JU21	714.923184667	128.160431974	;
JU22	714.192447221	128.500117205	;
JU23	721.775746548	128.74627472	;
JU24	713.844527948	128.498187975	;
JU25	715.897092218	128.20150733	;
JU26	714.368683347	128.485991571	;
JU27	714.215442717	128.491964942	;
JU28	716.062427914	128.209032968	;
JU29	716.478200647	128.349743016	;
JU30	714.86262589	128.163097868	;
JU31	721.034054097	128.694172533	;
JU32	716.562315613	128.234225983	;
JU33	721.407365209	128.721564165	;
JU34	720.469703098	128.628329718	;
JU35	714.893064351	128.070579999	;
JU36	716.265105612	128.27742178	;
JU37	721.217604952	128.698722868	;
JU39	714.17438991	128.535468233	;
JU40	715.856570727	128.24780169	;
JU41	716.880811659	128.306656126	;
JU42	714.768642918	128.456968953	;
JU43	716.640763634	128.209976472	;
JU45	716.261741338	128.251760578	;
JU46	715.512570513	128.164941465	;
JU47	713.835088235	128.887785013	;
JU48	715.866181969	128.234675727	;
JU50	715.728994819	128.212334945	;
JU51	715.848213958	128.209497249	;
JU52	714.834031902	128.46414263	;
JU53	714.911747071	128.203028757	;
JU54	714.103155317	128.420723709	;
JU55	714.304078738	128.49442691	;
JU56	714.303390671	128.461902836	;
JU57	713.911823807	128.533808285	;
JU58	715.62081498	128.232217165	;
JU59	716.852682687	128.241528232	;
JU60	716.765364731	128.163550066	;
JU61	714.241016499	128.505954999	;
JU62	714.179874483	128.465501187	;
JU63	713.835088235	128.887785013	;
JU64	714.814200675	128.451211246	;
JU65	713.90710395	128.728606804	;
JU66	714.168235169	128.496233671	;
JU67	715.684875271	128.189979811	;
JU68	714.820811084	128.455521707	;
JU69	716.880811659	128.306656126	;
JU70	714.617044607	128.524320644	;
JU71	714.270503438	128.495651788	;
JU72	719.638797704	128.562403174	;

[RESERVOIRS]
;ID	Head	Pattern
R44	7056	;

[TANKS]
;ID	Elevation	InitLevel	MinLevel	MaxLevel	Diameter	MinVol	VolCurve
T49	784.113887564	3.25	1.00	10.00	30.00	0.00;
T38	775.897886287	3.25	1.00	10.00	30.00	0.00;

[PIPES]
;ID	Node1	Node2	Length	Diameter	Roughness	MinorLoss	Status
PI1	JU1	JU65	170.002377061	12	130	;
PI2	JU1	JU66	1856.73102062	12	140	;
PI3	JU1	JU70	3426.11287143	12	120	;
PI4	JU1	JU55	957.346762793	12	130	;
PI5	JU1	JU57	1218.79408599	12	130	;
PI6	JU1	JU27	3197.84966598	12	140	;
PI7	JU2	JU58	3338.99467443	12	120	;
PI8	JU2	JU6	2046.61968228	12	130	;
PI9	JU2	JU7	263.178413292	12	120	;
PI10	JU3	JU66	2896.90395874	12	130	;
PI11	JU3	JU17	2857.49868851	12	140	;
PI12	JU3	JU54	2695.81363257	12	120	;
PI13	JU3	JU56	1992.14496416	12	120	;
PI14	JU3	JU26	2286.74242743	12	130	;
PI15	JU3	JU27	612.071102118	12	130	;
PI16	JU3	JU62	1561.00977982	12	120	;
PI17	JU4	JU7	2761.91759455	12	130	;
PI18	JU4	JU11	681.408679289	12	120	;
PI19	JU4	JU12	2047.66946394	12	120	;
PI20	JU4	JU45	1611.25417787	12	120	;
PI21	JU4	JU15	2347.52043946	12	130	;
PI22	JU4	JU48	3313.17994169	12	140	;
PI23	JU4	JU50	2279.82872997	12	120	;
PI24	JU4	JU51	3392.56758191	12	120	;
PI25	JU4	JU25	227.165826061	12	120	;
PI26	JU5	JU7	2806.14659941	12	130	;
PI27	JU5	JU8	257.133696414	12	120	;
PI28	JU5	JU9	2086.08268738	12	140	;
PI29	JU5	JU43	402.742489741	12	140	;
PI30	JU5	JU12	1355.6589491	12	140	;
PI31	JU5	JU25	2694.35221528	12	130	;
PI32	JU6	JU40	2621.43688829	12	130	;
PI33	JU6	JU13	110.196363671	12	120	;
PI34	JU6	JU48	3158.47199262	12	130	;
PI35	JU6	JU58	2876.22122708	12	140	;
PI36	JU6	JU30	417.093999815	12	140	;
PI37	JU7	JU32	1591.42208949	12	120	;
PI38	JU7	JU40	3273.40248804	12	140	;
PI39	JU7	JU9	843.614983054	12	130	;
PI40	JU7	JU10	837.236100409	12	130	;
PI41	JU7	JU43	612.406331774	12	130	;
PI42	JU7	JU34	846.691848627	12	130	;
PI43	JU7	JU45	1081.42709487	12	130	;
PI44	JU7	JU48	1533.88019607	12	140	;
PI45	JU7	JU72	1621.35214552	12	140	;
PI46	JU7	JU51	395.46139267	12	120	;
PI47	JU7	JU41	1316.7839663	12	140	;
PI48	JU7	JU59	776.328200392	12	130	;
PI49	JU7	JU28	200.23325728	12	140	;
PI50	JU7	JU29	882.948635005	12	120	;
PI51	JU7	JU69	1062.74219083	12	140	;
PI52	JU8	JU32	3152.42519617	12	130	;
PI53	JU8	JU9	2784.85304675	12	120	;
PI54	JU8	JU14	1576.23420962	12	120	;
PI55	JU9	JU32	1429.12744483	12	130	;
PI56	JU9	JU13	1344.11935103	12	140	;
PI57	JU9	JU48	945.230292641	12	120	;
PI58	JU10	JU13	2129.67507403	12	140	;
PI59	JU10	JU29	261.059232418	12	120	;
PI60	JU10	JU70	1929.34221393	12	120	;
PI61	JU11	JU50	1241.71930808	12	140	;
PI62	JU11	JU67	2477.9829018	12	130	;
PI63	JU11	JU46	3461.80682152	12	140	;
PI64	JU12	JU16	1821.44552133	12	140	;
PI65	JU12	R44	2279.8930812	12	140	;
PI66	JU12	JU46	3480.60059702	12	130	;
PI67	JU14	JU60	2519.12574838	12	140	;
PI68	JU14	JU43	2974.53920009	12	130	;
PI69	JU14	JU20	299.440614983	12	130	;
PI70	JU15	JU53	3385.96870035	12	140	;
PI71	JU16	JU35	2802.26268258	12	140	;
PI72	JU17	JU27	1526.82860086	12	120	;
PI73	JU18	JU64	2578.6938201	12	140	;
PI74	JU18	JU68	804.921992295	12	130	;
PI75	JU18	JU70	1267.00185786	12	130	;
PI76	JU18	JU42	3214.64089987	12	140	;
PI77	JU18	JU52	328.017151038	12	130	;
PI78	JU18	JU55	732.961218808	12	130	;
PI79	JU19	JU40	1290.32477047	12	140	;
PI80	JU19	JU58	1357.39380256	12	120	;
PI81	JU20	JU32	2865.34100234	12	140	;
PI82	JU20	JU59	3414.95854275	12	130	;
PI83	JU20	JU43	1939.87161677	12	130	;
PI84	JU20	JU60	592.93739603	12	120	;
PI85	JU21	JU48	2653.02626291	12	120	;
PI86	JU21	JU36	2779.60623745	12	120	;
PI87	JU21	JU30	2386.69198673	12	140	;
PI88	JU22	JU66	2822.3358124	12	120	;
PI89	JU22	JU55	1847.34857874	12	140	;
PI90	JU23	JU72	2208.15822205	12	120	;
PI91	JU23	JU33	2411.4468966	12	130	;
PI92	JU23	JU37	356.577524953	12	120	;
PI93	JU23	JU31	516.996151617	12	130	;
PI94	JU24	JU57	1678.4880799	12	120	;
PI95	JU24	JU55	1774.84846402	12	130	;
PI96	JU26	JU66	1443.49623514	12	130	;
PI97	JU26	JU70	1125.21614525	12	140	;
PI98	JU26	JU71	154.853438637	12	130	;
PI99	JU26	JU42	535.826002848	12	130	;
PI100	JU26	JU56	2517.10389685	12	130	;
PI101	JU26	JU27	501.208738179	12	130	;
PI102	JU26	JU61	471.262216006	12	140	;
PI103	JU27	JU70	621.093878169	12	130	;
PI104	JU28	JU46	2728.24048465	12	130	;
PI105	JU30	JU36	1304.25586387	12	140	;
PI106	JU31	JU72	319.896923546	12	130	;
PI107	JU31	JU34	606.641940381	12	120	;
PI108	JU33	JU72	2025.67422561	12	140	;
PI109	JU33	JU34	3418.83604011	12	140	;
PI110	JU33	JU37	2385.61764506	12	140	;
PI111	JU34	JU72	289.48219288	12	140	;
PI112	JU34	JU37	2254.73632431	12	120	;
PI113	JU35	JU46	1424.31914086	12	130	;
PI114	JU36	JU40	159.342094521	12	140	;
PI115	JU36	JU72	2255.8410813	12	120	;
PI116	JU36	JU48	1365.77179715	12	140	;
PI117	JU39	JU66	2241.2785117	12	120	;
PI118	JU39	JU61	1281.07248061	12	120	;
PI119	JU40	JU58	3232.82131603	12	130	;
PI120	JU42	JU64	3021.09885204	12	130	;
PI121	JU42	JU68	3332.38864546	12	130	;
PI122	JU42	JU70	1975.08073193	12	120	;
PI123	JU42	JU52	1212.03315622	12	140	;
PI124	JU42	JU55	2474.93301247	12	140	;
PI125	JU46	JU51	1282.66178741	12	130	;
PI126	JU47	JU65	324.02694051	12	130	;
PI127	JU47	JU70	2989.99701555	12	130	;
PI128	JU47	JU63	2741.32354691	12	120	;
PI129	JU50	JU51	1061.30693673	12	140	;
PI130	JU51	JU67	1941.47968843	12	120	;
PI131	JU52	JU68	3332.59137006	12	130	;
PI132	JU52	JU70	323.171760546	12	130	;
PI133	JU55	JU71	1359.59322397	12	140	;
PI134	JU56	JU62	3104.49446646	12	140	;
PI135	JU61	JU71	399.154436011	12	120	;
PI136	JU62	JU66	1966.85102004	12	130	;
PI137	JU66	JU71	2265.54883459	12	130	;

[PUMPS]
;ID	Node1	Node2	Parameters
PU1	JU30	T49	HEAD 1 	PATTERN 2	;
PU2	JU9	T38	HEAD 1 	PATTERN 3	;

[TIMES]
Duration		24:00
Hydraulic Timestep	1:00
Quality Timestep	0:05
Pattern Timestep	1:00
Pattern Start	0:00
Report Timestep	1:00
Report Start	0:00
Start Clocktime	12 am
Statistic		NONE

[COORDINATES]
;Node	X - Coord	Y - Coord
JU1	-59.3869160117	-36.3332565258
JU2	28.9631300575	-30.6704396013
JU3	-24.743312922	-69.7843533522
JU4	-6.59643647291	43.4420226678
JU5	35.3322607708	38.1242419228
JU6	36.3946549135	-40.3878934555
JU7	25.3587796427	18.5682069073
JU8	56.6200967817	20.2076719625
JU9	40.8198429417	4.19995773889
JU10	-6.26502448791	-7.24342011009
JU11	-25.8398695405	67.9295025614
JU12	6.67765080911	73.5705285078
JU13	18.1320831276	-20.2253258763
JU14	83.6271795387	19.0181134581
JU15	-39.1025148781	49.0623256397
JU16	-2.68338473227	92.8713221824
JU17	-20.3527025954	-56.9070064817
JU18	-83.23707212	-9.26597189299
JU19	47.1697860333	-58.5479096599
JU20	80.2846042498	9.39489129428
JU21	62.2828092602	-31.5217269868
JU22	-72.1037768776	-58.2697269236
JU23	73.9809163085	68.8663546047
JU24	-94.296114409	-41.8944999772
JU25	14.771031049	47.1434917841
JU26	-47.5284118794	-55.1814977722
JU27	-35.0759319506	-44.93765896
JU28	7.40262356853	54.9945677922
JU29	2.31271865146	2.74636899813
JU30	65.0750494859	-44.835434833
JU31	62.7693314287	64.2679663389
JU32	55.3522750792	9.70664089379
JU33	71.4430628175	61.585247598
JU34	54.8246241812	57.8736502701
JU35	-12.2688830024	93.4794079453
JU36	61.5764798648	-19.4629198869
JU37	66.2648437943	74.7370682964
JU39	-54.9987334915	-86.2064339824
JU40	46.318133137	-36.0935806904
JU41	11.2483040278	11.9183856463
JU42	-75.5263929862	-17.8150228101
JU43	64.5143781207	24.9360154239
JU45	2.69009666914	30.9304360695
JU46	-10.8107452209	76.1357147477
JU47	-56.0964628892	6.92942191699
JU48	35.4937070321	-10.3468911778
JU50	-25.6068682578	56.4666057662
JU51	-14.4284663073	56.3732525788
JU52	-74.4186768501	-0.797731782103
JU53	-51.700965482	53.5591395949
JU54	-10.9536723133	-79.4814117831
JU55	-78.3365422691	-38.9726469439
JU56	-30.7459987439	-77.7188367068
JU57	-86.8575055061	-41.3958030668
JU58	38.8393516881	-52.9795505504
JU59	64.1847945863	7.78821617384
JU60	94.4016700545	10.6968921004
JU61	-60.6173796546	-77.1290016565
JU62	-29.5605984021	-85.2381628016
JU63	-61.080564665	19.9529772114
JU64	-93.4632977343	-9.0278278228
JU65	-56.3729088069	-6.15815176829
JU66	-48.9744499298	-70.846371135
JU67	-33.8319895505	69.9084507832
JU68	-85.3945462029	2.74152723396
JU69	9.98927202248	20.1597914053
JU70	-51.5670732327	-17.9106764129
JU71	-63.8799163101	-64.3471985885
JU72	62.6910495019	44.0657119017
R44	10.597169574	86.5700025832
T49	73.3532382347	-56.1951228877
T38	50.3580319135	-6.03432682015

[VALVES]
;ID	Node1	Node2	Diameter	Type	Setting	MinorLoss

[PATTERNS]
;ID	Multipliers
1	1.0000	1.0000	1.0000	0.9000	0.9000	0.9000
1	.7000	.7000	0.7000	0.6000	0.6000	0.6000
1	1.2000	1.2000	1.2000	1.3000	1.3000	1.3000
1	1.2000	1.2000	1.2000	1.1000	1.1000	1.1000
2	1.0000	1.0000	1.0000	1.0000	1.0000	1.0000
2	1.0000	1.0000	1.0000	1.0000	1.0000	1.0000
2	1.0000	1.0000	1.0000	1.0000	1.0000	1.0000
2	1.0000	1.0000	1.0000	1.0000	1.0000	1.0000
3	1.0000	1.0000	1.0000	1.0000	1.0000	1.0000
3	1.0000	1.0000	1.0000	1.0000	1.0000	1.0000
3	1.0000	1.0000	1.0000	1.0000	1.0000	1.0000
3	1.0000	1.0000	1.0000	1.0000	1.0000	1.0000

[TAGS]

[DEMANDS]

[STATUS]

[CURVES]
;ID 	X-Value	 Y-Value
1	10	280

[CONTROLS]

[RULES]

[ENERGY]
