[TITLE]
Generated synthetic network;

[JUNCTIONS]
;ID	Elev	Demand	Pattern
JU1	709.125988036	133.498552756	;
JU2	707.375207917	136.577909474	;
JU3	708.095167074	127.032344143	;
JU4	710.778855884	128.784859022	;
JU5	714.011568039	126.962606171	;
JU6	712.199959119	126.541538473	;
JU7	710.147563096	126.786941308	;
JU8	714.161817177	124.603206929	;
JU9	714.086692608	125.78290655	;
JU10	709.432307709	132.120554111	;
JU11	709.928556105	125.053398115	;
JU12	708.234035822	123.959641541	;
JU13	708.403757813	134.349231792	;
JU14	707.739895695	123.950139636	;
JU15	713.105763579	126.752072322	;
JU16	707.080810543	124.343276002	;
JU17	708.334642386	125.097164951	;

[RESERVOIRS]
;ID	Head	Pattern
R18	7056	;

[TANKS]
;ID	Elevation	InitLevel	MinLevel	MaxLevel	Diameter	MinVol	VolCurve
T18	764.991341553	3.25	1.00	10.00	30.00	0.00;

[PIPES]
;ID	Node1	Node2	Length	Diameter	Roughness	MinorLoss	Status
PI1	JU1	JU10	1277.38867548	12	130	;
PI2	JU1	JU4	2393.47857187	12	120	;
PI3	JU1	JU2	624.13333812	12	130	;
PI4	JU1	JU5	105.598725961	12	140	;
PI5	JU2	JU13	3307.93965739	12	130	;
PI6	JU3	JU17	2735.27815381	12	130	;
PI7	JU3	JU4	2168.643453	12	140	;
PI8	JU3	JU7	1921.63450735	12	120	;
PI9	JU4	JU5	295.567729263	12	130	;
PI10	JU4	JU6	1835.99525718	12	120	;
PI11	JU4	JU10	484.277283666	12	120	;
PI12	JU4	JU11	2046.1820817	12	130	;
PI13	JU4	T18	1570.24545475	12	140	;
PI14	JU5	JU15	2107.26260592	12	130	;
PI15	JU5	JU6	3121.9340191	12	130	;
PI16	JU5	JU9	2542.82685949	12	140	;
PI17	JU6	JU7	1603.51929473	12	140	;
PI18	JU6	JU8	1305.80520026	12	140	;
PI19	JU6	JU10	3271.96180606	12	120	;
PI20	JU6	JU11	3188.01272542	12	140	;
PI21	JU6	JU12	2328.25368108	12	130	;
PI22	JU6	JU15	551.435980544	12	120	;
PI23	JU8	JU9	1100.22504432	12	120	;
PI24	JU8	JU11	1154.69147902	12	140	;
PI25	JU10	JU13	1929.90179741	12	120	;
PI26	JU11	JU17	2809.28987719	12	140	;
PI27	JU11	JU14	1279.20420169	12	140	;
PI28	JU12	JU17	628.774725642	12	140	;
PI29	JU12	JU14	2918.65812473	12	120	;
PI30	JU14	JU16	870.898759042	12	130	;
PI31	JU16	JU17	2788.10135959	12	140	;

[PUMPS]
;ID	Node1	Node2	Parameters

[TIMES]
Duration		24:00
Hydraulic Timestep	1:00
Quality Timestep	0:05
Pattern Timestep	1:00
Pattern Start	0:00
Report Timestep	1:00
Report Start	0:00
Start Clocktime	12 am
Statistic		NONE

[COORDINATES]
;Node	X - Coord	Y - Coord
JU1	-1.46435609245	27.4855688396
JU2	-8.45659513842	39.5090291918
JU3	-19.2312825458	-12.4914305313
JU4	-8.61953419115	7.4551276175
JU5	12.2417869767	15.9682438417
JU6	5.58022019863	-0.441465666754
JU7	-12.3367400037	-8.13661591171
JU8	21.7341493085	-6.45660279653
JU9	27.798298179	6.01243514361
JU10	-10.1558583919	21.3350320672
JU11	6.29537505542	-15.5203886147
JU12	1.7144666111	-25.3575426478
JU13	-15.8202041094	35.3900976451
JU14	6.03903178145	-34.0050015473
JU15	18.6860371271	10.2219219176
JU16	-3.96587100764	-39.445641728
JU17	-9.38156909391	-27.5944595111
R18	-23.0992341622	9.05478739671
T18	-23.0992341622	9.05478739671

[VALVES]
;ID	Node1	Node2	Diameter	Type	Setting	MinorLoss

[PATTERNS]
;ID	Multipliers
1	1.0000	1.0000	1.0000	0.9000	0.9000	0.9000
1	.7000	.7000	0.7000	0.6000	0.6000	0.6000
1	1.2000	1.2000	1.2000	1.3000	1.3000	1.3000
1	1.2000	1.2000	1.2000	1.1000	1.1000	1.1000

[TAGS]

[DEMANDS]

[STATUS]

[CURVES]
;ID 	X-Value	 Y-Value
1	10	280

[CONTROLS]

[RULES]

[ENERGY]
