[TITLE]
Generated synthetic network;

[JUNCTIONS]
;ID	Elev	Demand	Pattern
JU1	713.560206037	128.381047142	;
JU2	713.982482173	128.329021261	;
JU3	714.316644513	128.39975931	;
JU4	716.856921371	128.254997603	;
JU5	714.79977803	128.457431011	;
JU6	714.781150116	128.523269614	;
JU7	714.478939959	128.593553295	;
JU8	714.401216207	128.648876553	;
JU9	714.130769448	128.267355512	;
JU10	713.589496812	128.082264944	;
JU11	714.475872247	128.658112472	;
JU12	714.933916024	128.508643687	;
JU13	713.153085352	127.889096644	;
JU14	724.348449918	128.309423984	;
JU15	716.856921371	128.254997603	;
JU16	714.665849352	128.706938274	;
JU17	714.149731447	128.605212401	;
JU18	718.674482763	128.292855308	;
JU19	713.827214428	128.318956422	;
JU20	714.038245842	128.307912272	;
JU21	714.600487056	128.724699981	;
JU22	716.573306071	128.257414089	;
JU23	713.680055984	128.327859317	;
JU24	713.951273512	128.188358432	;
JU25	713.584541736	128.331147116	;
JU26	726.217633204	128.243934357	;
JU27	713.560206037	128.381047142	;
JU28	714.63860527	128.566494511	;
JU30	714.459566625	128.660435949	;
JU31	714.786910555	128.611332606	;
JU32	714.809825962	128.520151545	;
JU33	726.337040142	128.244805192	;
JU34	727.699922427	128.227059462	;
JU35	713.357301507	127.96423768	;
JU36	715.054294063	128.494723671	;
JU37	721.491000914	128.25245306	;
JU38	727.889044197	128.185154498	;
JU39	716.217547031	128.482495978	;
JU40	714.282448445	128.632967989	;
JU41	714.632925257	128.60244295	;
JU42	714.862947176	128.502083858	;
JU43	714.728321436	128.466979467	;
JU44	714.391130102	128.393226136	;
JU45	713.241291809	127.914427065	;
JU46	716.469283945	128.335403214	;
JU47	714.620480956	128.497212369	;
JU48	716.573306071	128.257414089	;
JU49	713.47339916	128.023251312	;
JU50	714.633168204	128.715819127	;
JU51	713.917785741	128.314190497	;
JU52	713.622811812	128.325707691	;
JU53	716.885429477	128.463691706	;
JU55	714.639358995	128.525492153	;
JU56	713.789325404	128.163281413	;
JU57	726.73041958	128.221056535	;
JU58	726.428364309	128.236598695	;
JU59	714.824183723	128.493222138	;
JU60	712.930404186	127.790126592	;
JU61	714.477406103	128.625832883	;
JU62	716.884338535	128.464485137	;
JU63	714.2777987	128.629018981	;
JU64	716.884702182	128.46422066	;
JU65	713.678189326	128.32527041	;
JU66	714.028933677	128.296486093	;
JU67	729.288120685	128.184369902	;
JU68	716.884520359	128.464352899	;
JU69	727.775027752	128.218744852	;
JU70	713.603676774	128.328427404	;

[RESERVOIRS]
;ID	Head	Pattern
R54	7056	;

[TANKS]
;ID	Elevation	InitLevel	MinLevel	MaxLevel	Diameter	MinVol	VolCurve
T29	780.739926211	3.25	1.00	10.00	30.00	0.00;

[PIPES]
;ID	Node1	Node2	Length	Diameter	Roughness	MinorLoss	Status
PI1	JU1	JU17	3162.61963643	12	140	;
PI2	JU1	JU27	344.491841208	12	130	;
PI3	JU2	JU51	2426.46169095	12	140	;
PI4	JU2	JU5	1115.97392325	12	140	;
PI5	JU2	JU9	1066.82807393	12	130	;
PI6	JU2	JU10	2403.27786508	12	140	;
PI7	JU2	JU44	2305.6816964	12	120	;
PI8	JU2	JU47	2828.38634793	12	130	;
PI9	JU2	JU19	535.089066954	12	140	;
PI10	JU2	JU25	2615.81337829	12	120	;
PI11	JU3	JU5	959.986889943	12	120	;
PI12	JU3	JU6	1922.80637845	12	120	;
PI13	JU3	JU7	3354.85861369	12	120	;
PI14	JU3	JU10	1831.94669777	12	140	;
PI15	JU3	JU43	1503.04775813	12	120	;
PI16	JU3	JU24	3446.14168518	12	140	;
PI17	JU4	JU18	405.236116307	12	130	;
PI18	JU4	JU22	2749.59204486	12	130	;
PI19	JU4	JU46	144.668401958	12	140	;
PI20	JU4	JU37	645.872352467	12	140	;
PI21	JU5	JU32	3351.84960574	12	130	;
PI22	JU5	JU7	1071.8550952	12	130	;
PI23	JU5	JU8	346.79256249	12	130	;
PI24	JU5	JU39	219.885151057	12	120	;
PI25	JU5	JU44	1974.26350177	12	130	;
PI26	JU5	JU46	721.792404672	12	120	;
PI27	JU5	JU47	1477.52342045	12	130	;
PI28	JU5	JU43	1774.6983988	12	140	;
PI29	JU5	JU18	2307.27028254	12	120	;
PI30	JU5	JU51	1928.10900424	12	120	;
PI31	JU5	JU55	2524.62904669	12	140	;
PI32	JU5	JU24	1695.3955749	12	120	;
PI33	JU5	JU59	2522.20233496	12	130	;
PI34	JU5	JU28	1858.79011149	12	130	;
PI35	JU6	JU32	823.685219457	12	120	;
PI36	JU6	JU12	2808.42012818	12	130	;
PI37	JU6	JU7	788.093788819	12	120	;
PI38	JU7	JU32	1588.00131643	12	140	;
PI39	JU7	JU40	2568.55243319	12	120	;
PI40	JU7	JU41	574.304015862	12	130	;
PI41	JU7	JU11	2931.79243589	12	140	;
PI42	JU7	JU47	1880.42527516	12	140	;
PI43	JU7	JU17	3299.97473949	12	130	;
PI44	JU7	JU55	796.313240867	12	140	;
PI45	JU7	JU61	2549.89183298	12	130	;
PI46	JU8	JU17	1388.12260835	12	140	;
PI47	JU8	JU11	369.15054674	12	140	;
PI48	JU8	JU63	2719.00604763	12	120	;
PI49	JU9	JU66	923.233415371	12	130	;
PI50	JU9	JU19	2204.599206	12	120	;
PI51	JU9	JU20	1498.96343031	12	140	;
PI52	JU9	JU56	549.990114957	12	120	;
PI53	JU9	T29	757.19832459	12	130	;
PI54	JU10	JU56	3375.49467378	12	120	;
PI55	JU10	JU49	544.646043876	12	140	;
PI56	JU10	JU13	3123.55343973	12	140	;
PI57	JU11	JU31	2193.16883656	12	130	;
PI58	JU11	JU61	2378.42263749	12	130	;
PI59	JU12	JU42	209.33717655	12	140	;
PI60	JU12	JU43	2516.81082634	12	130	;
PI61	JU13	JU35	1583.71507879	12	130	;
PI62	JU13	JU45	494.236624903	12	140	;
PI63	JU14	JU34	2777.94725339	12	140	;
PI64	JU14	JU37	3190.68343553	12	130	;
PI65	JU15	JU18	457.752905834	12	130	;
PI66	JU15	JU22	266.662282289	12	130	;
PI67	JU15	JU46	930.865093634	12	130	;
PI68	JU15	JU37	1308.15283788	12	120	;
PI69	JU16	JU50	1831.40538831	12	140	;
PI70	JU16	JU21	186.450061635	12	140	;
PI71	JU16	JU30	1317.79310638	12	120	;
PI72	JU16	JU31	1540.64498033	12	140	;
PI73	JU17	JU63	2877.7060154	12	120	;
PI74	JU17	JU40	2415.54225673	12	120	;
PI75	JU18	JU33	1042.48985324	12	130	;
PI76	JU18	JU37	1876.01449071	12	130	;
PI77	JU18	JU46	1989.40371652	12	120	;
PI78	JU19	JU65	2973.27613363	12	140	;
PI79	JU19	JU51	3046.73607513	12	140	;
PI80	JU19	JU52	169.460323612	12	130	;
PI81	JU19	JU23	2927.41973465	12	130	;
PI82	JU19	JU20	886.349275307	12	140	;
PI83	JU20	JU66	828.547346766	12	140	;
PI84	JU20	JU51	3291.50893421	12	140	;
PI85	JU21	JU50	331.968400996	12	120	;
PI86	JU21	JU30	2049.97232373	12	120	;
PI87	JU22	JU48	2205.43918474	12	140	;
PI88	JU22	JU37	3211.10234444	12	120	;
PI89	JU22	JU46	252.031033994	12	120	;
PI90	JU23	JU51	124.554014995	12	140	;
PI91	JU23	JU52	3195.38964407	12	130	;
PI92	JU24	JU56	1568.23591759	12	140	;
PI93	JU24	JU45	703.367277348	12	120	;
PI94	JU25	JU65	2991.93154844	12	120	;
PI95	JU25	JU51	2191.82653758	12	120	;
PI96	JU25	JU52	2354.15219489	12	130	;
PI97	JU25	JU70	1456.98776639	12	130	;
PI98	JU26	JU33	660.698597706	12	130	;
PI99	JU26	JU34	2021.69051512	12	140	;
PI100	JU26	JU37	1972.49527793	12	120	;
PI101	JU26	JU58	139.130941764	12	130	;
PI102	JU26	JU57	2399.19276094	12	130	;
PI103	JU28	JU31	3486.66240082	12	130	;
PI104	JU30	JU36	2858.1924858	12	140	;
PI105	JU30	JU31	1312.12260387	12	120	;
PI106	JU31	JU39	2818.20287073	12	140	;
PI107	JU31	JU41	2332.64560616	12	140	;
PI108	JU31	JU47	3019.09555626	12	130	;
PI109	JU32	JU42	2215.25072648	12	140	;
PI110	JU32	JU59	1379.96647679	12	120	;
PI111	JU33	JU58	477.314526546	12	140	;
PI112	JU33	JU34	1821.14713156	12	120	;
PI113	JU33	JU69	1262.14369601	12	140	;
PI114	JU34	JU38	1640.44207156	12	140	;
PI115	JU34	JU69	344.184850103	12	120	;
PI116	JU35	JU56	1589.27090426	12	120	;
PI117	JU35	JU49	1179.59594616	12	120	;
PI118	JU36	JU47	3479.38360505	12	140	;
PI119	JU36	JU46	1599.70153527	12	120	;
PI120	JU36	JU39	3417.68610012	12	140	;
PI121	JU37	JU38	917.331616202	12	130	;
PI122	JU38	JU67	2662.88272657	12	140	;
PI123	JU39	JU64	2697.08324306	12	140	;
PI124	JU39	JU53	262.171617346	12	130	;
PI125	JU39	JU62	2660.62508514	12	130	;
PI126	JU40	JU63	2218.26318831	12	130	;
PI127	JU42	JU59	971.356097981	12	130	;
PI128	JU42	JU43	2672.07611871	12	120	;
PI129	JU51	JU66	237.165394467	12	140	;
PI130	JU51	JU56	3218.43015917	12	120	;
PI131	JU51	JU52	2534.26987213	12	130	;
PI132	JU52	JU65	1435.29879486	12	140	;
PI133	JU52	JU70	143.946846374	12	120	;
PI134	JU53	JU64	2762.65850072	12	120	;
PI135	R54	JU60	1546.90203739	12	130	;
PI136	JU57	JU58	1331.14815834	12	140	;
PI137	JU62	JU68	1022.37219006	12	120	;
PI138	JU64	JU68	3302.18112949	12	130	;
PI139	JU67	JU69	531.703400031	12	130	;

[PUMPS]
;ID	Node1	Node2	Parameters
PU1	JU60	JU45	HEAD 1 	PATTERN 2	;

[TIMES]
Duration		24:00
Hydraulic Timestep	1:00
Quality Timestep	0:05
Pattern Timestep	1:00
Pattern Start	0:00
Report Timestep	1:00
Report Start	0:00
Start Clocktime	12 am
Statistic		NONE

[COORDINATES]
;Node	X - Coord	Y - Coord
JU1	23.3871060525	-103.588761683
JU2	16.0719136909	25.1378562131
JU3	-12.2703724122	-38.8840941096
JU4	-52.6148362599	24.4572606002
JU5	7.18052979997	-19.2629708808
JU6	-7.25046310708	-67.6068629635
JU7	22.4569761464	-52.732222084
JU8	35.6143766333	-65.3397776397
JU9	-0.725892331057	53.8900047651
JU10	-21.4278795935	-6.59226767802
JU11	48.3118869044	-50.4086479632
JU12	-26.8454961848	-74.4460489448
JU13	-49.0955319068	-21.7617034732
JU14	-71.9809422956	51.8599695665
JU15	-46.5479008402	32.4841299032
JU16	81.5032004154	9.71187867875
JU17	29.2328088683	-85.4508941816
JU18	-43.3584485039	21.0078390718
JU19	23.3743442784	63.2882657683
JU20	9.12979214954	68.5070280399
JU21	84.9546331537	19.7003234628
JU22	-60.0114831389	18.6005282707
JU23	27.3685378802	74.2484629879
JU24	-24.2331466367	-23.121013831
JU25	41.9696877268	54.8968427735
JU26	-92.8843275313	34.2378205888
JU27	19.6760351215	-111.217209783
JU28	37.4247239877	-20.1087531122
JU30	68.5375655589	8.46019801188
JU31	57.2221728335	-16.4449468865
JU32	-1.88439079086	-57.8189272617
JU33	-83.3969847523	39.4731585389
JU34	-84.92137185	53.9216284261
JU35	-41.7944214859	-6.97258137422
JU36	40.2776709683	4.15472009696
JU37	-63.7192020627	38.4725589909
JU38	-70.6983805394	63.4553958266
JU39	68.9701612698	-17.5695434562
JU40	33.3905846792	-78.1501698003
JU41	46.5165502587	-36.5436541219
JU42	-22.9475368583	-66.9648705606
JU43	-23.7477973871	-53.9089234575
JU44	13.1873997326	5.98338440252
JU45	-56.5713419227	-36.463520521
JU46	-26.882964706	15.5862183001
JU47	31.5065928388	-9.67162977006
JU48	-71.8817157393	8.12692110116
JU49	-38.0864798026	-12.9246022044
JU50	92.9174023994	20.0896832244
JU51	18.4924242204	47.2742075786
JU52	39.2102203752	71.5867723514
JU53	86.3366707611	-16.4922903702
JU55	16.5415734583	-37.848291314
JU56	-12.5567365952	16.0970960853
JU57	-104.766996437	22.0466304611
JU58	-99.4985754523	26.8515161199
JU59	-11.1202597663	-52.5420835133
JU60	-73.2997574076	-48.4949393652
JU61	44.2067810918	-58.0960918684
JU62	87.9283047959	-30.2935094149
JU63	41.0469824361	-84.0535831953
JU64	92.6310774607	-21.0416471939
JU65	45.5766565385	66.4917421244
JU66	1.56029805311	66.4014613542
JU67	-75.8877419625	74.1655710825
JU68	98.679070857	-29.7439647536
JU69	-84.9217648359	64.1581755696
JU70	53.95543897	69.6180333372
R54	-80.5241025294	-53.9824429891
T29	-11.452624853	66.992712326

[VALVES]
;ID	Node1	Node2	Diameter	Type	Setting	MinorLoss

[PATTERNS]
;ID	Multipliers
1	1.0000	1.0000	1.0000	0.9000	0.9000	0.9000
1	.7000	.7000	0.7000	0.6000	0.6000	0.6000
1	1.2000	1.2000	1.2000	1.3000	1.3000	1.3000
1	1.2000	1.2000	1.2000	1.1000	1.1000	1.1000
2	1.0000	1.0000	1.0000	1.0000	1.0000	1.0000
2	1.0000	1.0000	1.0000	1.0000	1.0000	1.0000
2	1.0000	1.0000	1.0000	1.0000	1.0000	1.0000
2	1.0000	1.0000	1.0000	1.0000	1.0000	1.0000

[TAGS]

[DEMANDS]

[STATUS]

[CURVES]
;ID 	X-Value	 Y-Value
1	10	280

[CONTROLS]

[RULES]

[ENERGY]
