[TITLE]
Generated synthetic network;

[JUNCTIONS]
;ID	Elev	Demand	Pattern
JU2	712.186843545	128.613681096	;
JU4	712.926663289	127.881112873	;
JU5	716.309072512	128.582928026	;
JU6	713.347232441	128.022947178	;
JU7	715.367566057	128.119692884	;
JU8	726.724896875	128.021516483	;
JU9	715.485176746	128.70680826	;
JU10	712.25213852	128.312147146	;
JU11	712.886468077	128.339838619	;
JU12	716.682476157	128.440810216	;
JU13	714.147114673	128.000402878	;
JU14	719.950047981	127.368575568	;
JU15	715.046102417	128.322227294	;
JU16	714.446590952	128.283651179	;
JU17	715.046102417	128.322227294	;
JU18	718.591320611	128.840389126	;
JU19	722.425326346	128.148037441	;
JU20	718.676163658	128.866559544	;
JU21	716.473244404	127.25722003	;
JU22	716.316221202	127.247495784	;
JU23	724.805962752	127.656704965	;
JU24	714.80558516	128.372467049	;
JU25	719.587783219	128.112092773	;
JU26	726.199303999	128.124746976	;
JU27	713.846026618	128.356152834	;
JU28	720.315839316	128.304442863	;
JU29	722.45776743	128.192670458	;
JU30	716.684075698	128.329839481	;
JU31	719.450055984	128.23794033	;
JU32	715.292626649	128.343692035	;
JU33	719.934315246	128.203691432	;
JU34	725.910054542	127.934322808	;
JU35	716.046927246	128.083903368	;
JU36	719.450055984	128.23794033	;
JU37	719.587783219	128.112092773	;
JU38	723.08395793	128.244616476	;
JU39	719.167202636	128.128476166	;
JU40	717.277778711	128.282274955	;
JU41	714.446590952	128.283651179	;
JU42	722.46142391	128.176934463	;
JU43	719.447589691	128.117553904	;
JU44	715.744830429	128.351153265	;
JU45	716.91948114	128.49943723	;
JU46	720.779414872	128.361658375	;
JU47	723.08395793	128.244616476	;
JU48	717.579837862	127.291097127	;
JU49	713.333480417	127.920876208	;
JU50	715.169364533	128.332959665	;
JU51	712.496901582	127.881716228	;
JU52	712.25213852	128.312147146	;
JU53	719.225184597	128.129771332	;
JU54	722.878792257	128.145463759	;
JU55	730.346605716	127.706213329	;
JU56	720.215590359	128.257341567	;
JU57	712.315556489	128.340766586	;
JU58	712.723492111	128.153395094	;
JU59	718.529340048	128.272334904	;
JU60	713.333480417	127.920876208	;
JU61	715.390320205	128.283192438	;
JU62	712.922067011	127.952331703	;
JU64	716.450724872	128.298435625	;
JU65	712.186843545	128.613681096	;
JU66	720.356227916	128.284166634	;
JU67	719.030023428	129.006798053	;
JU68	716.948453053	128.196013894	;
JU69	725.077785324	128.010395078	;
JU70	716.106053894	128.421564633	;
JU71	714.918455579	128.283421809	;
JU72	718.960296929	128.374812076	;
JU73	719.41635102	128.486955659	;
JU74	717.63468472	128.478870051	;
JU75	718.337331939	128.617650811	;

[RESERVOIRS]
;ID	Head	Pattern
R63	7056	;

[TANKS]
;ID	Elevation	InitLevel	MinLevel	MaxLevel	Diameter	MinVol	VolCurve
T3	773.338753556	3.25	1.00	10.00	30.00	0.00;
T1	792.077365437	3.25	1.00	10.00	30.00	0.00;

[PIPES]
;ID	Node1	Node2	Length	Diameter	Roughness	MinorLoss	Status
PI1	T1	JU55	3314.37545319	12	140	;
PI2	JU2	JU57	1562.07066718	12	140	;
PI3	JU2	JU65	3477.35083405	12	130	;
PI4	T3	JU58	2317.88669081	12	140	;
PI5	JU4	JU49	1968.67597519	12	140	;
PI6	JU5	JU74	2649.48206165	12	120	;
PI7	JU6	JU35	295.021703108	12	130	;
PI8	JU6	JU62	1029.77597527	12	140	;
PI9	JU7	JU68	2497.39418716	12	130	;
PI10	JU7	JU13	1044.06773716	12	120	;
PI11	JU8	JU34	419.034801275	12	130	;
PI12	JU8	JU54	498.25778421	12	130	;
PI13	JU9	JU12	2339.6887912	12	140	;
PI14	JU10	JU57	2391.81816996	12	120	;
PI15	JU10	JU11	161.085961043	12	120	;
PI16	JU10	JU52	3231.36644923	12	140	;
PI17	JU11	JU27	1018.41315349	12	120	;
PI18	JU12	JU31	281.32304681	12	120	;
PI19	JU13	JU49	3061.93042281	12	140	;
PI20	JU14	JU48	2198.74052072	12	140	;
PI21	JU14	JU21	1183.52780767	12	140	;
PI22	JU14	JU23	3411.6923203	12	130	;
PI23	JU15	JU32	2943.8886631	12	140	;
PI24	JU15	JU17	1519.2272461	12	120	;
PI25	JU16	JU41	1966.64417957	12	130	;
PI26	JU16	JU61	2366.4176091	12	140	;
PI27	JU16	JU71	2802.5903339	12	130	;
PI28	JU17	JU50	603.972130535	12	130	;
PI29	JU18	JU20	1440.73993041	12	130	;
PI30	JU19	JU56	3355.18988072	12	130	;
PI31	JU19	JU66	2756.44417151	12	120	;
PI32	JU19	JU69	2397.97450698	12	120	;
PI33	JU20	JU75	2087.25919185	12	140	;
PI34	JU20	JU67	1241.55938019	12	120	;
PI35	JU21	JU48	106.085971264	12	120	;
PI36	JU21	JU22	510.333943335	12	130	;
PI37	JU22	JU48	2810.75584189	12	140	;
PI38	JU23	JU34	2706.37671516	12	120	;
PI39	JU24	JU27	654.613923522	12	140	;
PI40	JU24	JU44	999.230188219	12	120	;
PI41	JU25	JU43	1239.97286435	12	130	;
PI42	JU26	JU34	159.620314937	12	140	;
PI43	JU26	JU38	2950.8989216	12	130	;
PI44	JU28	JU59	1621.78155314	12	130	;
PI45	JU28	JU38	440.14080095	12	140	;
PI46	JU29	JU42	399.028342034	12	130	;
PI47	JU30	JU64	3448.44933515	12	120	;
PI48	JU30	JU44	2110.96537667	12	140	;
PI49	JU31	JU36	2040.33780383	12	120	;
PI50	JU31	JU54	637.987288697	12	140	;
PI51	JU32	JU50	267.230452422	12	140	;
PI52	JU32	JU70	1080.14336912	12	140	;
PI53	JU33	JU56	1051.31803885	12	120	;
PI54	JU35	JU53	2793.73337138	12	130	;
PI55	JU37	JU43	1818.63338387	12	140	;
PI56	JU38	JU47	2536.33882952	12	130	;
PI57	JU39	JU43	818.285194939	12	120	;
PI58	JU39	JU53	3486.40927482	12	120	;
PI59	JU40	JU64	583.264095476	12	120	;
PI60	JU42	JU54	2272.6759404	12	120	;
PI61	JU42	JU69	3115.58191846	12	130	;
PI62	JU42	JU46	2004.54905129	12	140	;
PI63	JU42	JU53	241.967090786	12	120	;
PI64	JU45	JU75	2310.10202001	12	130	;
PI65	JU45	JU70	2303.84361647	12	130	;
PI66	JU46	JU73	625.440687278	12	140	;
PI67	JU49	JU60	3166.67364471	12	140	;
PI68	JU51	JU62	747.445550244	12	130	;
PI69	JU55	JU69	1881.44329961	12	140	;
PI70	JU56	JU72	2910.0654094	12	120	;
PI71	JU57	JU58	224.506368911	12	130	;
PI72	JU59	JU68	2266.73189965	12	140	;
PI73	JU61	JU64	564.486176169	12	130	;
PI74	JU61	JU71	1347.00499374	12	130	;
PI75	R63	JU67	1599.59601803	12	120	;
PI76	JU66	JU72	1095.48867364	12	140	;
PI77	JU72	JU74	3141.68322795	12	140	;
PI78	JU73	JU75	2826.03156678	12	120	;

[PUMPS]
;ID	Node1	Node2	Parameters
PU1	JU6	JU58	HEAD 1 	PATTERN 2	;

[TIMES]
Duration		24:00
Hydraulic Timestep	1:00
Quality Timestep	0:05
Pattern Timestep	1:00
Pattern Start	0:00
Report Timestep	1:00
Report Start	0:00
Start Clocktime	12 am
Statistic		NONE

[COORDINATES]
;Node	X - Coord	Y - Coord
JU2	3.7735264033	52.1134298902
JU4	78.3651605923	8.92530357716
JU5	-49.8286587955	-77.2530170255
JU6	-11.9267854668	26.9037177225
JU7	77.1016811689	-20.2603189736
JU8	18.4220181162	-40.0598720513
JU9	45.792396437	-9.83588001992
JU10	-18.9235568994	67.0249625098
JU11	-15.3544102214	77.9448558558
JU12	39.2766979687	-13.2580150762
JU13	79.1338289577	-9.63002403326
JU14	9.13026165538	-73.4201701679
JU15	-71.4659856224	47.656530336
JU16	60.8262431678	51.5530025421
JU17	-65.8819104891	53.6587596106
JU18	-71.9438327104	-13.9777142566
JU19	-36.0663775256	-44.437888017
JU20	-72.2152534459	-6.446148571
JU21	-1.08413723324	-77.3145036667
JU22	-4.27772644389	-84.7723137942
JU23	17.8507788225	-64.0199279866
JU24	4.9548261963	84.3131511421
JU25	41.9571367942	23.8578029457
JU26	39.0902222025	-56.3695953722
JU27	-6.39386654998	83.6828089793
JU28	61.9550434727	-49.0239937562
JU29	-8.51640496746	-7.57569052613
JU30	27.6451942645	76.1156853803
JU31	28.409073425	-19.7461824798
JU32	-67.8507576922	38.422377082
JU33	-59.1793335274	-46.7352728838
JU34	25.4192916728	-53.5790687763
JU35	-1.59151955856	16.3831741457
JU36	34.3750820718	-23.6547291847
JU37	45.1044484021	16.4687871304
JU38	52.1803855902	-56.8967156158
JU39	22.7449568828	12.1793065537
JU40	34.8591312485	62.5336321125
JU41	66.5594895085	45.8962488341
JU42	-7.363020361	-14.6880950444
JU43	36.8190072266	17.7734361675
JU44	16.5187171289	81.4767509738
JU45	-64.9237741891	14.7370449827
JU46	-26.9803442174	-6.69698921547
JU47	54.1646944731	-64.339147335
JU48	4.069924867	-82.8332527854
JU49	81.0166241416	1.69003286391
JU50	-62.0578695594	47.0264416282
JU51	-31.0494848914	25.9476774973
JU52	-27.4161658458	67.9923995356
JU53	6.20262102083	4.79043514504
JU54	12.6777679375	-25.2705238081
JU55	-32.3830412464	-27.0701025865
JU56	-50.4821057053	-49.0710174881
JU57	-9.00361307021	54.6051931943
JU58	-13.151086159	41.396665878
JU59	69.0266367348	-40.2742205474
JU60	87.2591635725	5.24225039032
JU61	51.4954691767	59.8615709893
JU62	-23.7229176047	25.4544378748
JU64	38.8361182153	67.9226559437
JU65	11.0683827422	49.6290357231
JU66	-38.3844834057	-55.0096343739
JU67	-82.7789808953	-9.66741439245
JU68	73.9427718398	-30.5500119709
JU69	-23.1119425478	-30.3466320254
JU70	-67.7219610407	26.014487505
JU71	59.6186752422	58.7670807541
JU72	-47.4478199198	-60.4397205565
JU73	-43.9562241203	-1.63371522177
JU74	-49.5921838693	-70.7987968366
JU75	-60.1253501539	2.29410911552
R63	-88.6384125811	-12.7537929406
T3	-20.6098761319	43.4261935319
T1	-39.1451443668	-24.8370011785

[VALVES]
;ID	Node1	Node2	Diameter	Type	Setting	MinorLoss

[PATTERNS]
;ID	Multipliers
1	1.0000	1.0000	1.0000	0.9000	0.9000	0.9000
1	.7000	.7000	0.7000	0.6000	0.6000	0.6000
1	1.2000	1.2000	1.2000	1.3000	1.3000	1.3000
1	1.2000	1.2000	1.2000	1.1000	1.1000	1.1000
2	1.0000	1.0000	1.0000	1.0000	1.0000	1.0000
2	1.0000	1.0000	1.0000	1.0000	1.0000	1.0000
2	1.0000	1.0000	1.0000	1.0000	1.0000	1.0000
2	1.0000	1.0000	1.0000	1.0000	1.0000	1.0000

[TAGS]

[DEMANDS]

[STATUS]

[CURVES]
;ID 	X-Value	 Y-Value
1	10	280

[CONTROLS]

[RULES]

[ENERGY]
