[TITLE]
Generated synthetic network;

[JUNCTIONS]
;ID	Elev	Demand	Pattern
JU1	712.077444483	128.351215513	;
JU2	711.623597497	126.733983119	;
JU4	711.931448745	128.112425369	;
JU5	711.429115246	128.103505282	;
JU6	711.301361337	129.142187568	;
JU7	720.371058936	130.013998768	;
JU8	711.40692692	128.977891913	;
JU9	712.096238641	128.63816173	;
JU10	721.426968975	130.201090959	;
JU11	715.171890552	127.955914896	;
JU12	713.93172155	128.62572048	;
JU13	712.729332938	127.815953717	;
JU14	712.205552007	128.356773799	;
JU15	711.804244529	128.125443097	;
JU16	711.29000519	126.805538578	;
JU17	714.335319168	127.926402821	;
JU18	712.757598987	128.268098	;
JU19	711.247977017	126.447644077	;
JU20	712.920232933	128.332608685	;
JU21	711.811644819	128.775497192	;
JU22	711.163697923	126.43398006	;
JU23	711.492856193	127.663911891	;
JU24	711.349111722	126.815425798	;
JU25	713.18039668	128.119971753	;
JU26	712.336626437	127.891941822	;
JU27	711.740937472	127.362779706	;
JU28	712.353687349	127.457500807	;
JU29	712.286121153	128.410293459	;
JU30	712.973840151	128.031701443	;
JU31	722.532357072	130.490448268	;
JU32	712.492320605	128.122707425	;
JU33	722.532357072	130.490448268	;
JU34	722.380979459	130.467974699	;
JU35	722.218165644	130.412490548	;

[RESERVOIRS]
;ID	Head	Pattern
R3	7056	;

[TANKS]
;ID	Elevation	InitLevel	MinLevel	MaxLevel	Diameter	MinVol	VolCurve
T3	763.199345426	3.25	1.00	10.00	30.00	0.00;

[PIPES]
;ID	Node1	Node2	Length	Diameter	Roughness	MinorLoss	Status
PI1	JU1	JU25	1524.8687556	12	120	;
PI2	JU1	JU29	101.492120318	12	120	;
PI3	JU2	JU25	253.832870058	12	120	;
PI4	JU2	JU19	3481.73958449	12	120	;
PI5	JU2	JU28	3326.07340605	12	140	;
PI6	JU2	JU22	909.898639422	12	130	;
PI7	T3	JU27	1392.75623777	12	130	;
PI8	JU4	JU25	1088.36106147	12	120	;
PI9	JU4	JU27	1500.07006017	12	130	;
PI10	JU4	JU12	1157.55750248	12	120	;
PI11	JU4	JU29	2052.99012883	12	120	;
PI12	JU4	JU15	390.04708573	12	140	;
PI13	JU5	JU14	2417.54039652	12	140	;
PI14	JU6	JU9	2899.50939195	12	140	;
PI15	JU6	JU21	1314.96428114	12	140	;
PI16	JU7	JU33	3383.48628948	12	120	;
PI17	JU7	JU34	723.979216031	12	130	;
PI18	JU7	JU10	670.207704847	12	130	;
PI19	JU7	JU12	1948.65906745	12	120	;
PI20	JU7	JU25	2577.86913453	12	130	;
PI21	JU7	JU31	3001.26402219	12	120	;
PI22	JU8	JU9	1422.22987972	12	130	;
PI23	JU8	JU29	696.460840918	12	140	;
PI24	JU8	JU21	1194.25141722	12	120	;
PI25	JU9	JU25	2215.75257794	12	140	;
PI26	JU9	JU20	1253.29496045	12	130	;
PI27	JU9	JU29	2500.37341351	12	130	;
PI28	JU10	JU33	3078.24506002	12	140	;
PI29	JU10	JU31	642.223024376	12	120	;
PI30	JU10	JU25	1911.72295622	12	140	;
PI31	JU10	JU35	3172.40158772	12	140	;
PI32	JU11	JU17	258.799923195	12	130	;
PI33	JU11	JU20	3424.5538533	12	140	;
PI34	JU12	JU18	1668.82272649	12	120	;
PI35	JU12	JU14	743.798466119	12	140	;
PI36	JU13	JU25	2921.85559306	12	130	;
PI37	JU13	JU20	2995.23983859	12	130	;
PI38	JU13	JU28	2469.81226994	12	130	;
PI39	JU14	JU15	818.043360179	12	120	;
PI40	JU15	JU32	2485.4671638	12	140	;
PI41	JU15	JU18	3262.86463808	12	120	;
PI42	JU15	JU23	2685.80302603	12	140	;
PI43	JU16	JU24	1645.35769318	12	120	;
PI44	JU16	JU25	157.837254501	12	130	;
PI45	JU16	JU27	3478.58518259	12	130	;
PI46	JU16	JU19	706.713074444	12	130	;
PI47	JU17	JU30	2663.35183568	12	140	;
PI48	JU18	JU25	2858.2653253	12	120	;
PI49	JU19	JU22	1981.39549967	12	120	;
PI50	JU20	JU30	583.39019508	12	140	;
PI51	JU20	JU21	909.597249285	12	130	;
PI52	JU21	JU29	2576.1613343	12	140	;
PI53	JU22	JU24	594.060882614	12	120	;
PI54	JU23	JU26	3042.4165483	12	120	;
PI55	JU23	JU27	3157.12295695	12	120	;
PI56	JU24	JU27	3331.62020076	12	120	;
PI57	JU24	JU28	2145.90530958	12	140	;
PI58	JU25	JU32	2813.60620542	12	140	;
PI59	JU25	JU26	2728.20376296	12	130	;
PI60	JU25	JU27	913.992488298	12	130	;
PI61	JU25	JU28	1892.24018308	12	140	;
PI62	JU25	JU29	673.296149801	12	120	;
PI63	JU27	JU28	1540.05408773	12	120	;
PI64	JU28	JU30	2985.01509785	12	120	;
PI65	JU29	JU30	3135.26639389	12	120	;
PI66	JU31	JU35	930.654950375	12	120	;
PI67	JU31	JU34	2453.6628056	12	120	;
PI68	JU33	JU35	2899.77053165	12	140	;
PI69	JU33	JU34	3355.29081052	12	120	;
PI70	JU34	JU35	3170.48914392	12	140	;

[PUMPS]
;ID	Node1	Node2	Parameters

[TIMES]
Duration		24:00
Hydraulic Timestep	1:00
Quality Timestep	0:05
Pattern Timestep	1:00
Pattern Start	0:00
Report Timestep	1:00
Report Start	0:00
Start Clocktime	12 am
Statistic		NONE

[COORDINATES]
;Node	X - Coord	Y - Coord
JU1	20.3543638171	-1.95927541647
JU2	-23.6223644293	-34.7857111566
JU4	10.4052636888	15.0163075477
JU5	20.1236011455	62.6766712369
JU6	60.710038995	-12.3704035906
JU7	-27.4676149023	33.7655823716
JU8	51.0275604582	-4.55831510902
JU9	41.8755396763	-12.337900755
JU10	-36.9916490832	23.3746802148
JU11	42.472839306	-49.4798503613
JU12	-0.540411516358	41.9911623593
JU13	14.635888105	-27.1374252414
JU14	14.6681978387	53.4797271402
JU15	14.930302965	34.8955614296
JU16	-24.8198231215	-23.7927327398
JU17	34.0086160454	-52.3995097049
JU18	4.8338302255	30.8457445143
JU19	-36.4475060364	-38.9652174926
JU20	40.3011411478	-32.9280528097
JU21	53.5994279869	-17.0372881036
JU22	-30.3584194817	-47.0437533249
JU23	-6.65954075199	17.4507780441
JU24	-16.8674032857	-37.8926765333
JU25	0.426687531442	-1.56536823225
JU26	-11.4596237576	10.410686988
JU27	-15.1946031349	-11.8470056812
JU28	-1.56840183564	-31.5687914811
JU29	32.1101603937	-6.10866764192
JU30	26.4155377435	-37.2639972862
JU31	-47.2295012549	29.9785689015
JU32	18.6257282955	22.4792039914
JU33	-40.7400065841	39.8690143029
JU34	-48.033211757	43.3005777435
JU35	-54.1142569082	34.5121199042
R3	-31.5551188883	-11.1327648895
T3	-31.5551188883	-11.1327648895

[VALVES]
;ID	Node1	Node2	Diameter	Type	Setting	MinorLoss

[PATTERNS]
;ID	Multipliers
1	1.0000	1.0000	1.0000	0.9000	0.9000	0.9000
1	.7000	.7000	0.7000	0.6000	0.6000	0.6000
1	1.2000	1.2000	1.2000	1.3000	1.3000	1.3000
1	1.2000	1.2000	1.2000	1.1000	1.1000	1.1000

[TAGS]

[DEMANDS]

[STATUS]

[CURVES]
;ID 	X-Value	 Y-Value
1	10	280

[CONTROLS]

[RULES]

[ENERGY]
