[TITLE]
Generated synthetic network;

[JUNCTIONS]
;ID	Elev	Demand	Pattern
JU1	709.758154555	111.090902209	;
JU2	708.747034258	109.432881192	;
JU3	716.7819245	119.556277618	;
JU4	710.104282024	115.488984949	;
JU5	716.343962977	114.106461017	;
JU6	717.308523832	117.047324969	;
JU7	717.045224166	118.301801294	;
JU8	721.316054369	116.853558853	;
JU9	718.876743087	115.258430597	;
JU10	718.092633459	116.152877783	;
JU11	719.140110312	119.209320764	;
JU12	711.03237924	115.407830748	;
JU13	718.680946311	119.478288788	;
JU15	711.03237924	115.407830748	;
JU16	712.719267645	120.929164499	;
JU17	709.425658141	112.460933071	;
JU18	711.731759753	113.009442386	;
JU19	717.007599788	122.923816419	;
JU20	714.863433717	121.926490459	;

[RESERVOIRS]
;ID	Head	Pattern
R14	7056	;

[TANKS]
;ID	Elevation	InitLevel	MinLevel	MaxLevel	Diameter	MinVol	VolCurve
T14	760.63052102	3.25	1.00	10.00	30.00	0.00;

[PIPES]
;ID	Node1	Node2	Length	Diameter	Roughness	MinorLoss	Status
PI1	JU1	JU12	1065.19678031	12	140	;
PI2	JU1	JU2	1977.61997918	12	140	;
PI3	JU1	JU4	2750.62010586	12	120	;
PI4	JU1	JU5	1496.73272538	12	140	;
PI5	JU2	JU18	442.384006956	12	120	;
PI6	JU2	JU17	130.597321069	12	140	;
PI7	JU3	JU11	3100.46021262	12	140	;
PI8	JU3	JU4	237.166877438	12	140	;
PI9	JU3	JU13	1270.36294789	12	140	;
PI10	JU3	JU7	2753.53932324	12	140	;
PI11	JU4	JU6	469.337258774	12	120	;
PI12	JU4	JU12	2945.00337491	12	120	;
PI13	JU4	T14	2055.73513689	12	130	;
PI14	JU4	JU16	249.518062978	12	140	;
PI15	JU4	JU17	2265.85694107	12	130	;
PI16	JU4	JU18	2929.88020157	12	140	;
PI17	JU5	JU18	2647.74925163	12	140	;
PI18	JU5	JU13	2544.72196727	12	140	;
PI19	JU5	JU6	760.594067201	12	120	;
PI20	JU5	JU9	2154.70815482	12	120	;
PI21	JU6	JU7	3133.80212628	12	130	;
PI22	JU6	JU8	2866.88147312	12	140	;
PI23	JU6	JU10	3335.87599914	12	140	;
PI24	JU6	JU11	3423.78523743	12	130	;
PI25	JU6	JU12	2597.20422353	12	120	;
PI26	JU8	JU9	1684.93539219	12	120	;
PI27	JU8	JU13	2519.52320443	12	140	;
PI28	JU9	JU10	3088.26784537	12	140	;
PI29	JU11	JU13	467.775418198	12	120	;
PI30	JU12	JU15	3411.26912751	12	140	;
PI31	JU13	JU19	244.917653178	12	140	;
PI32	JU16	JU20	3278.21234833	12	120	;
PI33	JU19	JU20	2938.05833455	12	140	;

[PUMPS]
;ID	Node1	Node2	Parameters

[TIMES]
Duration		24:00
Hydraulic Timestep	1:00
Quality Timestep	0:05
Pattern Timestep	1:00
Pattern Start	0:00
Report Timestep	1:00
Report Start	0:00
Start Clocktime	12 am
Statistic		NONE

[COORDINATES]
;Node	X - Coord	Y - Coord
JU1	10.4697513427	20.7293768214
JU2	2.56000050937	34.3190295278
JU3	-12.3614258664	-10.4096090817
JU4	-7.68083909275	13.3337770922
JU5	8.52795975639	0.49101754951
JU6	11.8997844214	-10.0078928878
JU7	-1.60505633337	-11.8985500774
JU8	9.70395190052	-26.8625735055
JU9	21.5244234616	-20.7997742835
JU10	28.2260124569	-17.1643884195
JU11	-3.19615164838	-22.7226111914
JU12	18.9288622309	12.5358971424
JU13	-11.7036399243	-22.2504304102
JU15	30.8652956912	17.0707762966
JU16	-29.5925354641	5.94866175765
JU17	-8.2282861184	32.4948627381
JU18	0.576094977772	22.3882029291
JU19	-30.9807259616	-17.8704797185
JU20	-37.2062552733	-6.01147009957
R14	-19.7768876206	20.6650925783
T14	-19.7768876206	20.6650925783

[VALVES]
;ID	Node1	Node2	Diameter	Type	Setting	MinorLoss

[PATTERNS]
;ID	Multipliers
1	1.0000	1.0000	1.0000	0.9000	0.9000	0.9000
1	.7000	.7000	0.7000	0.6000	0.6000	0.6000
1	1.2000	1.2000	1.2000	1.3000	1.3000	1.3000
1	1.2000	1.2000	1.2000	1.1000	1.1000	1.1000

[TAGS]

[DEMANDS]

[STATUS]

[CURVES]
;ID 	X-Value	 Y-Value
1	10	280

[CONTROLS]

[RULES]

[ENERGY]
