[TITLE]
Generated synthetic network;

[JUNCTIONS]
;ID	Elev	Demand	Pattern
JU1	715.638547077	128.794856584	;
JU2	714.306527716	128.794763846	;
JU4	714.204897096	128.885067261	;
JU5	715.101930166	128.537701791	;
JU6	712.559218151	128.266909033	;
JU7	714.084000331	128.69385758	;
JU8	715.060046143	128.753127313	;
JU9	714.064499796	129.476590416	;
JU10	712.409095577	127.944267767	;
JU11	714.642533218	128.05575149	;
JU12	715.071683631	129.040624929	;
JU13	714.346587164	128.8997022	;
JU14	715.101930166	128.537701791	;
JU15	712.552965456	128.159125104	;
JU16	714.710216318	128.376555866	;
JU17	713.998553862	128.704382907	;
JU18	714.316494375	128.606334005	;
JU19	712.543761218	128.141280883	;
JU21	712.592393977	128.031238686	;
JU22	714.235979856	128.557343996	;
JU23	712.563040217	128.110548224	;
JU24	715.065864887	128.896876121	;
JU25	714.710216318	128.376555866	;
JU26	714.480903714	129.103993064	;
JU27	714.642533218	128.05575149	;
JU28	711.884871174	127.665719993	;
JU29	714.474941907	128.818165767	;
JU30	714.398307136	128.313854878	;
JU31	713.388635492	128.370010519	;
JU32	714.64566964	128.319082174	;
JU33	714.240769155	128.607128396	;
JU34	717.694135169	128.414052423	;
JU35	713.135061697	128.255623336	;
JU36	715.232127413	128.869073522	;
JU37	714.149145867	128.659040646	;
JU38	714.192865139	128.594380548	;
JU39	714.292961114	128.65677314	;
JU40	714.821173349	128.44502055	;
JU41	714.319846042	128.403614957	;
JU42	714.402011189	128.576714573	;
JU43	715.018899929	128.235013174	;
JU44	714.41352754	128.426048214	;
JU45	714.734308479	128.476266688	;
JU46	717.582101316	128.431417449	;
JU47	713.119759151	128.337324288	;
JU48	711.928929875	127.738185092	;
JU49	714.264470485	128.607058568	;
JU50	714.782580387	128.494514733	;
JU51	714.825104576	128.405867115	;
JU52	714.889717307	128.874404769	;
JU53	714.480400522	128.88639141	;
JU54	711.937310835	127.751588205	;
JU55	712.14181962	127.91889411	;
JU56	712.731520393	128.02525752	;
JU57	714.437983456	128.470380475	;
JU58	714.529662371	128.65574815	;
JU59	716.019304925	128.356493986	;
JU60	713.254197322	128.353667403	;
JU61	711.917037295	127.718497764	;
JU62	713.131416435	128.094789182	;
JU63	712.839488651	128.30211666	;
JU64	714.192865139	128.594380548	;
JU65	712.559218151	128.266909033	;
JU66	715.92702443	128.743257472	;
JU67	715.101930166	128.537701791	;
JU68	714.766797261	128.415653853	;
JU69	717.543537689	128.40397911	;
JU70	717.201043125	128.419546168	;
JU71	714.162384743	128.650492988	;
JU72	714.321341863	128.603694527	;
JU73	714.272701755	129.29029174	;
JU74	717.10107601	128.502068378	;

[RESERVOIRS]
;ID	Head	Pattern
R20	7056	;

[TANKS]
;ID	Elevation	InitLevel	MinLevel	MaxLevel	Diameter	MinVol	VolCurve
T3	769.282836778	3.25	1.00	10.00	30.00	0.00;

[PIPES]
;ID	Node1	Node2	Length	Diameter	Roughness	MinorLoss	Status
PI1	JU1	JU8	1230.36641841	12	140	;
PI2	JU2	JU26	3216.98428352	12	140	;
PI3	JU2	JU29	1672.96669033	12	120	;
PI4	JU2	JU31	1318.24962678	12	130	;
PI5	T3	JU21	2718.48431092	12	120	;
PI6	JU4	JU53	2308.19448819	12	140	;
PI7	JU5	JU50	1195.30429207	12	140	;
PI8	JU5	JU67	3009.71221689	12	140	;
PI9	JU5	JU45	1931.08029364	12	130	;
PI10	JU6	JU65	411.754207421	12	120	;
PI11	JU6	JU63	2665.50272226	12	130	;
PI12	JU6	JU62	1861.37027208	12	140	;
PI13	JU6	JU55	1325.48235714	12	130	;
PI14	JU7	JU13	488.649660006	12	130	;
PI15	JU7	JU71	3138.81999126	12	140	;
PI16	JU8	JU24	2762.1616725	12	120	;
PI17	JU8	JU58	2555.51010195	12	130	;
PI18	JU8	JU33	1079.56745186	12	130	;
PI19	JU9	JU73	643.768642475	12	120	;
PI20	JU10	JU56	664.987416148	12	120	;
PI21	JU10	JU21	2556.40130547	12	130	;
PI22	JU11	JU27	737.200137474	12	120	;
PI23	JU11	JU43	3498.62255033	12	140	;
PI24	JU11	JU62	575.247403874	12	120	;
PI25	JU12	JU24	3393.26908813	12	140	;
PI26	JU12	JU26	1820.29666225	12	140	;
PI27	JU12	JU29	1492.89676642	12	130	;
PI28	JU13	JU36	1576.23989466	12	120	;
PI29	JU13	JU52	3395.25352515	12	140	;
PI30	JU13	JU53	2625.989848	12	120	;
PI31	JU14	JU50	3202.71887336	12	140	;
PI32	JU14	JU67	998.638773048	12	120	;
PI33	JU14	JU45	3235.57913136	12	120	;
PI34	JU15	JU19	1463.8412951	12	120	;
PI35	JU15	JU23	584.731939717	12	120	;
PI36	JU16	JU25	3080.86955598	12	140	;
PI37	JU16	JU30	451.660928848	12	130	;
PI38	JU17	JU72	1233.92451304	12	120	;
PI39	JU17	JU42	934.804981697	12	120	;
PI40	JU17	JU37	2682.29905252	12	130	;
PI41	JU18	JU72	233.76876788	12	120	;
PI42	JU18	JU42	2942.88283381	12	130	;
PI43	JU18	JU51	2230.66535058	12	130	;
PI44	JU18	JU37	1408.80015404	12	120	;
PI45	JU19	JU23	3085.36706779	12	130	;
PI46	R20	JU35	2376.56875891	12	120	;
PI47	JU21	JU23	3099.34982486	12	140	;
PI48	JU22	JU49	3436.32266194	12	120	;
PI49	JU22	JU58	1057.18023544	12	130	;
PI50	JU22	JU38	1121.39920691	12	120	;
PI51	JU22	JU57	1169.01633674	12	130	;
PI52	JU26	JU73	3057.11083696	12	140	;
PI53	JU28	JU48	127.64889002	12	120	;
PI54	JU28	JU61	630.489815185	12	140	;
PI55	JU28	JU54	2607.79936557	12	140	;
PI56	JU29	JU39	568.527584656	12	140	;
PI57	JU30	JU32	1893.14433205	12	140	;
PI58	JU31	JU35	1659.32595708	12	120	;
PI59	JU31	JU60	546.342037506	12	120	;
PI60	JU31	JU47	2835.94758898	12	130	;
PI61	JU32	JU59	931.369102013	12	130	;
PI62	JU33	JU71	661.23830262	12	120	;
PI63	JU34	JU74	2990.65778054	12	130	;
PI64	JU34	JU69	1310.08784579	12	130	;
PI65	JU34	JU46	2692.51220798	12	140	;
PI66	JU35	JU47	447.863017005	12	130	;
PI67	JU36	JU66	1317.08877249	12	130	;
PI68	JU37	JU72	2748.59334827	12	120	;
PI69	JU37	JU42	2343.17801293	12	140	;
PI70	JU38	JU64	3255.87527422	12	130	;
PI71	JU38	JU39	2768.76291887	12	130	;
PI72	JU39	JU49	3336.64328668	12	130	;
PI73	JU39	JU58	3285.7767858	12	140	;
PI74	JU40	JU72	1063.9956287	12	120	;
PI75	JU40	JU51	2058.60973979	12	130	;
PI76	JU40	JU68	2319.80897458	12	140	;
PI77	JU41	JU57	1556.09808981	12	140	;
PI78	JU41	JU44	3072.44573126	12	130	;
PI79	JU41	JU45	351.244772785	12	120	;
PI80	JU42	JU68	3463.18776341	12	120	;
PI81	JU43	JU51	583.50517546	12	130	;
PI82	JU43	JU68	3094.86759291	12	120	;
PI83	JU44	JU45	242.478999623	12	120	;
PI84	JU44	JU57	3194.6072983	12	120	;
PI85	JU46	JU74	559.341826214	12	120	;
PI86	JU46	JU70	883.824157709	12	140	;
PI87	JU47	JU63	1044.0597683	12	140	;
PI88	JU47	JU60	344.874829228	12	130	;
PI89	JU48	JU61	2470.6540507	12	130	;
PI90	JU48	JU54	1044.3075274	12	120	;
PI91	JU48	JU55	1067.06815994	12	140	;
PI92	JU50	JU57	486.718550819	12	130	;
PI93	JU51	JU68	608.171187124	12	130	;
PI94	JU52	JU66	208.227535997	12	120	;
PI95	JU52	JU53	2766.15992902	12	140	;
PI96	JU54	JU61	2189.62026308	12	120	;
PI97	JU54	JU55	1441.9990094	12	120	;
PI98	JU56	JU62	2367.2217616	12	140	;
PI99	JU59	JU70	2098.8910472	12	120	;
PI100	JU66	JU74	2402.98666596	12	140	;
PI101	JU69	JU70	1588.79365199	12	130	;
PI102	JU70	JU74	2729.60818032	12	120	;

[PUMPS]
;ID	Node1	Node2	Parameters
PU1	JU62	JU21	HEAD 1 	PATTERN 2	;

[TIMES]
Duration		24:00
Hydraulic Timestep	1:00
Quality Timestep	0:05
Pattern Timestep	1:00
Pattern Start	0:00
Report Timestep	1:00
Report Start	0:00
Start Clocktime	12 am
Statistic		NONE

[COORDINATES]
;Node	X - Coord	Y - Coord
JU1	-1.97179963088	77.331957595
JU2	7.94549680614	7.93918811981
JU4	-59.5164737335	-0.508979053959
JU5	74.5346929095	32.6797107543
JU6	-21.2678749891	-51.6103022306
JU7	-33.6593730438	36.5454124098
JU8	-1.24659287137	66.7664625826
JU9	-20.3944183979	2.51708468798
JU10	-0.693438070145	-86.9594500203
JU11	23.9466361565	-68.6395038112
JU12	0.128475420721	31.055178267
JU13	-46.3722098476	20.4751503267
JU14	81.0893382489	38.4525680765
JU15	-38.6407875235	-85.5949198863
JU16	-94.3434097296	7.02920056507
JU17	79.551073374	-23.2957416848
JU18	66.8962836546	-36.7182870149
JU19	-37.0858090268	-91.2703890796
JU21	-11.4970563461	-82.5523274738
JU22	35.1659895616	58.9232386814
JU23	-28.6570747836	-87.249834077
JU24	-2.32682283434	49.7177668203
JU25	-94.9505784353	-0.0740714488558
JU26	-3.40337510841	15.0125299892
JU27	27.6556361441	-75.8302451387
JU28	-70.2240369323	-39.2570279259
JU29	12.0002057566	26.3850572649
JU30	-92.6675661035	18.0684451656
JU31	6.98591906469	-12.8575660391
JU32	-89.0483172692	30.9949209597
JU33	-15.3282366828	63.1272553129
JU34	-53.888823338	71.1076576685
JU35	13.7276440606	-23.1613034824
JU36	-50.9552148245	29.3285901803
JU37	77.836931375	-30.1464495825
JU38	33.6185291494	43.1691696423
JU39	20.6951730156	45.3986015796
JU40	55.3449764376	-39.6919016856
JU41	68.0888494238	58.8056866209
JU42	76.3935903522	-40.7130332746
JU43	43.1898345675	-61.051043358
JU44	65.220706744	64.1552124022
JU45	75.672113128	49.9594274135
JU46	-58.8482916961	64.9477108127
JU47	1.01960487127	-27.169382499
JU48	-60.5536862521	-40.6271541015
JU49	26.8191594363	55.391209406
JU50	67.2087144343	39.5756108972
JU51	51.7381497731	-49.208945835
JU52	-57.4840156908	19.0175778615
JU53	-55.5680743118	7.95373205884
JU54	-61.9926077074	-48.5577213599
JU55	-46.2863636483	-47.1935546563
JU56	4.45365921758	-79.7879024378
JU57	55.9544136366	56.6624566491
JU58	16.7801093072	62.5027417513
JU59	-82.1408266727	45.2147202753
JU60	-1.09383288511	-18.6895443535
JU61	-71.4202196661	-46.2885244124
JU62	0.0110799974547	-68.7233139715
JU63	-11.0151920639	-39.5211596611
JU64	37.8491974398	33.9641953454
JU65	-27.9221196015	-48.7047272624
JU66	-57.6449523692	35.9249929759
JU67	82.9938604961	28.0051950619
JU68	59.3587706959	-53.6071127411
JU69	-63.7443030988	73.4676918964
JU70	-69.9166127392	60.2411320164
JU71	-24.8718821239	51.6264346095
JU72	67.1006676169	-25.3878414037
JU73	-14.258623238	7.50403164699
JU74	-57.6026790752	55.7755500749
R20	22.292828338	-24.3845254228
T3	-17.6346993605	-79.5856273606

[VALVES]
;ID	Node1	Node2	Diameter	Type	Setting	MinorLoss

[PATTERNS]
;ID	Multipliers
1	1.0000	1.0000	1.0000	0.9000	0.9000	0.9000
1	.7000	.7000	0.7000	0.6000	0.6000	0.6000
1	1.2000	1.2000	1.2000	1.3000	1.3000	1.3000
1	1.2000	1.2000	1.2000	1.1000	1.1000	1.1000
2	1.0000	1.0000	1.0000	1.0000	1.0000	1.0000
2	1.0000	1.0000	1.0000	1.0000	1.0000	1.0000
2	1.0000	1.0000	1.0000	1.0000	1.0000	1.0000
2	1.0000	1.0000	1.0000	1.0000	1.0000	1.0000

[TAGS]

[DEMANDS]

[STATUS]

[CURVES]
;ID 	X-Value	 Y-Value
1	10	280

[CONTROLS]

[RULES]

[ENERGY]
