[TITLE]
Generated synthetic network;

[JUNCTIONS]
;ID	Elev	Demand	Pattern
JU1	716.034110525	128.251036897	;
JU2	717.044627264	128.29033741	;
JU4	743.001243223	128.29750804	;
JU5	713.781763399	128.197156788	;
JU6	715.800999801	128.297590152	;
JU7	714.737524751	128.354009779	;
JU8	716.490101837	128.222755928	;
JU9	715.204582716	128.415793826	;
JU10	717.588827301	128.320674505	;
JU11	714.549525696	128.43133913	;
JU12	714.543289465	128.170041525	;
JU13	715.071892247	128.20562292	;
JU14	716.158825183	128.27898828	;
JU15	715.47932415	128.325097336	;
JU16	725.989543423	128.232402345	;
JU17	716.887901946	128.277638656	;
JU18	715.781682364	128.180008199	;
JU19	715.030212203	128.360335555	;
JU20	715.071892247	128.20562292	;
JU21	715.469662634	128.207545768	;
JU22	714.332667808	128.388226584	;
JU23	715.471563073	128.217303152	;
JU24	717.584375013	128.296402699	;
JU25	715.448741284	128.242182906	;
JU26	716.80361439	128.168592663	;
JU27	716.429758659	128.199452429	;
JU28	716.566083745	128.212465933	;
JU29	714.7282779	128.198282103	;
JU30	715.476803532	128.133475271	;
JU31	715.739662444	128.252069779	;
JU32	715.561339244	128.139703345	;
JU33	717.431580508	128.309461687	;
JU34	714.969985715	128.259722112	;
JU35	714.316251878	128.195625595	;
JU36	715.091544652	128.349806821	;
JU37	717.197024346	128.301869693	;
JU38	714.592687435	128.31687605	;
JU39	715.437021006	128.22687694	;
JU40	718.079171642	128.247048486	;
JU41	715.561339244	128.139703345	;
JU42	718.510097081	128.226649011	;
JU43	714.392247824	128.343441758	;
JU44	717.961094355	128.212511587	;
JU45	715.382351234	128.321250057	;
JU46	715.140027913	128.328999465	;
JU47	716.176906405	128.266901479	;
JU48	715.832804146	128.343156609	;
JU49	716.628069036	128.192540083	;
JU50	716.030578827	128.268441121	;
JU51	716.99773007	128.289633475	;
JU52	715.657495215	128.328046259	;
JU53	716.055661555	128.180661048	;
JU54	714.971161546	128.346447074	;
JU55	715.038715097	128.253186258	;
JU56	715.407582481	128.27882451	;
JU57	714.505649692	128.329601754	;
JU58	714.790386008	128.323474914	;
JU59	714.265145437	128.278489893	;
JU60	714.628971351	128.337249147	;
JU61	715.076709711	128.451285191	;
JU62	714.536895145	128.278565521	;
JU63	714.795140964	128.374941986	;
JU64	714.740240058	128.327965205	;
JU65	715.473949167	128.250327866	;
JU66	716.955233046	128.239132217	;
JU67	715.404671534	128.265910701	;
JU68	715.702468484	128.245070966	;
JU69	717.121005798	128.303680284	;
JU71	714.098925567	128.364953945	;
JU72	715.324084804	128.265146707	;
JU73	715.74093816	128.277945539	;
JU74	717.431580508	128.309461687	;
JU75	715.877208334	128.322920401	;
JU76	737.95393232	128.277781644	;
JU77	717.419487022	128.379405067	;
JU78	714.594565584	128.276912749	;
JU79	715.133177187	128.338681028	;
JU80	720.438735216	128.204104351	;
JU81	715.728044745	128.26107321	;
JU82	716.176906405	128.266901479	;
JU83	714.697599801	128.248101657	;
JU84	716.630646274	128.206141946	;
JU85	716.851316209	128.238764693	;
JU86	714.548965231	128.332270566	;
JU87	715.365415384	128.303061311	;
JU88	714.327334858	128.232993206	;
JU89	714.807057489	128.264613048	;
JU90	715.054879578	128.300783461	;
JU91	714.683024977	128.243089732	;
JU92	715.377371389	128.258861809	;
JU93	714.609758486	128.423076701	;
JU94	715.087514019	128.305498163	;
JU95	714.949794386	128.286746413	;
JU96	716.716177697	128.21551372	;
JU97	715.10266563	128.418006244	;
JU98	714.900085074	128.201952511	;
JU99	715.316561092	128.376963131	;
JU100	714.481464845	128.274957544	;
JU101	715.131640836	128.268263415	;
JU102	715.053705122	128.368325363	;
JU103	716.682158975	128.29265913	;
JU104	714.843700811	128.289627892	;
JU105	714.172445691	128.317780837	;
JU106	715.426167674	128.225418714	;
JU107	715.713157077	128.321068625	;
JU108	714.633513628	128.259648634	;
JU109	715.165501071	128.323392075	;
JU110	716.390880431	128.182285681	;
JU111	720.438735216	128.204104351	;
JU112	715.253513996	128.288107312	;
JU113	716.389169957	128.221254246	;
JU114	715.596884713	128.349941766	;
JU115	714.977101631	128.378096077	;
JU116	714.604192758	128.260902612	;
JU117	715.615949431	128.260575265	;
JU118	714.759468287	128.38710841	;
JU119	715.800165418	128.268879923	;
JU120	716.715841713	128.180566373	;
JU121	715.03458916	128.333847328	;
JU122	715.062554168	128.372501963	;
JU123	716.689944218	128.299321075	;
JU124	715.671434612	128.258357074	;
JU125	716.390880431	128.182285681	;
JU126	740.477587771	128.287644842	;
JU127	714.393534612	128.263023419	;
JU128	715.353824647	128.229255662	;
JU129	717.175987393	128.197398634	;
JU130	715.015479806	128.291398873	;
JU131	715.597943314	128.261991781	;
JU132	716.515323604	128.281200959	;
JU133	716.03814874	128.256330032	;
JU134	715.269675549	128.28960588	;
JU135	714.738166406	128.407710126	;
JU136	714.098925567	128.364953945	;
JU137	713.834203129	128.136229623	;
JU138	715.430837692	128.323173696	;
JU139	715.270109341	128.240742266	;
JU140	714.26997859	128.343224963	;
JU141	715.987147619	128.193614323	;
JU142	715.799561054	128.166790864	;
JU143	716.578277626	128.284310877	;
JU144	716.683623632	128.208469791	;
JU145	714.600785115	128.356981227	;
JU146	714.874017024	128.300496995	;
JU147	718.819349885	128.227417026	;
JU148	717.419487022	128.379405067	;
JU149	717.110885381	128.264161903	;
JU150	715.609926041	128.309435768	;
JU151	714.513222418	128.280730499	;
JU152	714.32099844	128.376954876	;
JU153	714.680609057	128.333120141	;
JU154	715.109405128	128.254836983	;
JU155	717.322413569	128.302773985	;
JU156	716.367009594	128.25935535	;
JU157	715.067780186	128.352424273	;
JU158	714.499213125	128.174863212	;
JU159	714.920394868	128.325851226	;
JU160	715.101410353	128.368372773	;
JU161	715.404671534	128.265910701	;
JU162	714.379356297	128.160001671	;
JU163	715.01666332	128.281071821	;
JU164	715.520112088	128.279409126	;
JU165	716.27288873	128.197018394	;
JU166	714.751970334	128.291533574	;
JU167	714.577631344	128.269634368	;
JU168	714.558738414	128.332530095	;
JU169	717.171479796	128.197087848	;
JU170	716.722184263	128.197053121	;
JU171	714.693619721	128.290613747	;
JU172	715.815308757	128.286049137	;
JU173	715.45429204	128.222090046	;
JU174	715.040980573	128.295893753	;
JU175	717.259718958	128.302321839	;
JU176	715.037113319	128.296025362	;
JU177	714.918765497	128.27393014	;
JU178	715.731918532	128.309790158	;
JU179	715.087514019	128.305498163	;
JU180	716.731984021	128.239137727	;
JU181	715.927032607	128.337510301	;
JU182	714.590268527	128.234505353	;
JU183	716.745446572	128.221401763	;
JU184	714.748737574	128.367544602	;
JU185	714.546092682	128.328368839	;
JU186	716.737252795	128.247012397	;
JU187	715.611833092	128.31205763	;
JU188	714.550046023	128.271015011	;
JU189	715.135114775	128.253948098	;
JU190	714.554857504	128.273071633	;
JU191	715.676107401	128.265625959	;
JU192	714.565281009	128.339206877	;
JU193	715.607970133	128.309565907	;
JU194	716.006906128	128.26884894	;
JU195	714.945167163	128.271373709	;
JU196	716.469128735	128.19076201	;
JU197	715.589470541	128.23449335	;
JU198	715.071362457	128.365406093	;
JU199	715.009005895	128.362286135	;
JU200	717.74628621	128.312758882	;
JU201	714.087649006	128.230090103	;
JU202	715.317670034	128.285580683	;
JU203	716.490101837	128.222755928	;
JU204	716.839944522	128.291146302	;
JU205	715.405669015	128.320634616	;
JU206	715.06376551	128.294302154	;
JU207	715.46606436	128.288513716	;
JU208	714.718638055	128.410055509	;
JU209	715.353824647	128.229255662	;
JU210	715.202688708	128.314804667	;
JU211	716.851625258	128.307223701	;
JU212	715.447260948	128.222922213	;
JU213	715.709083085	128.334965261	;
JU214	716.52656928	128.310210767	;
JU215	714.570699943	128.31687056	;
JU216	715.165980153	128.269728094	;
JU217	714.371572817	128.317325698	;
JU218	714.497379978	128.179360268	;
JU219	714.406815928	128.187492932	;
JU220	717.55102493	128.303978522	;
JU221	717.584375013	128.296402699	;
JU222	717.121005798	128.303680284	;
JU223	715.269675549	128.28960588	;
JU224	715.417461302	128.257412531	;
JU225	715.680277167	128.321926053	;
JU226	714.544740826	128.204684283	;
JU227	714.593854883	128.334889621	;
JU228	716.012252405	128.293700804	;
JU229	715.426635356	128.280045606	;
JU230	714.356623132	128.360198317	;
JU231	715.609926041	128.309435768	;
JU232	716.775646334	128.246297636	;
JU233	715.453876687	128.278661837	;

[RESERVOIRS]
;ID	Head	Pattern
R70	7056	;

[TANKS]
;ID	Elevation	InitLevel	MinLevel	MaxLevel	Diameter	MinVol	VolCurve
T3	771.421213984	3.25	1.00	10.00	30.00	0.00;

[PIPES]
;ID	Node1	Node2	Length	Diameter	Roughness	MinorLoss	Status
PI1	JU1	JU31	3203.60842971	12	140	;
PI2	JU1	JU47	2979.29618069	12	120	;
PI3	JU2	JU33	1956.01153656	12	130	;
PI4	JU2	R70	1542.87734299	12	130	;
PI5	T3	JU162	3114.16027745	12	140	;
PI6	JU4	JU76	200.872488544	12	130	;
PI7	JU4	JU126	2010.09258697	12	130	;
PI8	JU5	JU201	2886.56899472	12	120	;
PI9	JU6	JU193	3384.14476075	12	140	;
PI10	JU7	JU54	552.312496671	12	120	;
PI11	JU8	JU203	2839.40462832	12	120	;
PI12	JU8	JU68	415.232089817	12	130	;
PI13	JU9	JU99	701.958474759	12	140	;
PI14	JU10	JU200	3228.95953768	12	130	;
PI15	JU10	JU69	401.851248718	12	140	;
PI16	JU11	JU208	784.804474967	12	130	;
PI17	JU11	JU93	2270.18646991	12	140	;
PI18	JU12	JU158	231.251049576	12	140	;
PI19	JU13	JU98	2966.94304757	12	120	;
PI20	JU13	JU83	2752.41018443	12	140	;
PI21	JU13	JU20	2195.59478796	12	140	;
PI22	JU14	JU81	1455.6525836	12	140	;
PI23	JU14	JU103	265.355186183	12	120	;
PI24	JU14	JU143	184.424781832	12	120	;
PI25	JU15	JU138	1301.49591347	12	140	;
PI26	JU15	JU45	2385.93135856	12	140	;
PI27	JU15	JU213	2577.0062084	12	120	;
PI28	JU16	JU80	1841.26983135	12	130	;
PI29	JU16	JU147	3073.69623379	12	140	;
PI30	JU16	JU76	1347.02681082	12	120	;
PI31	JU17	JU232	1405.21660846	12	130	;
PI32	JU17	JU69	2383.64233639	12	130	;
PI33	JU18	JU25	1464.9934879	12	140	;
PI34	JU18	JU142	440.38320725	12	130	;
PI35	JU18	JU110	1350.17224185	12	120	;
PI36	JU19	JU36	2253.2800416	12	140	;
PI37	JU19	JU157	1085.51253477	12	120	;
PI38	JU19	JU102	693.527453192	12	140	;
PI39	JU21	JU162	1376.89872256	12	140	;
PI40	JU21	JU195	2743.18291777	12	120	;
PI41	JU21	JU85	262.439060767	12	140	;
PI42	JU22	JU152	2874.14671056	12	140	;
PI43	JU23	JU212	3125.65395856	12	130	;
PI44	JU24	JU155	2180.99563226	12	130	;
PI45	JU24	JU220	212.634378356	12	140	;
PI46	JU24	JU37	2651.39110033	12	140	;
PI47	JU24	JU221	1943.17825776	12	120	;
PI48	JU25	JU210	175.645292716	12	130	;
PI49	JU26	JU120	1947.61974231	12	120	;
PI50	JU26	JU49	3089.44120208	12	120	;
PI51	JU26	JU196	2265.66199445	12	130	;
PI52	JU27	JU96	1805.48256873	12	130	;
PI53	JU27	JU84	372.887858145	12	120	;
PI54	JU28	JU144	2683.41081956	12	130	;
PI55	JU28	JU147	2861.58859767	12	120	;
PI56	JU29	JU218	2761.37543666	12	140	;
PI57	JU29	JU108	2615.8126473	12	120	;
PI58	JU29	JU98	1804.82892769	12	140	;
PI59	JU30	JU32	2631.90578178	12	140	;
PI60	JU31	JU131	117.946287492	12	130	;
PI61	JU31	JU117	2613.93683188	12	130	;
PI62	JU31	JU119	2443.79391316	12	140	;
PI63	JU32	JU41	3334.3442071	12	120	;
PI64	JU32	JU142	2879.0854756	12	130	;
PI65	JU33	JU123	2036.22396147	12	120	;
PI66	JU33	JU74	344.236508315	12	140	;
PI67	JU34	JU189	1056.67460108	12	140	;
PI68	JU35	JU219	904.646228347	12	140	;
PI69	JU35	JU182	3383.02012228	12	120	;
PI70	JU36	JU160	373.983989116	12	120	;
PI71	JU36	JU210	2693.38593639	12	130	;
PI72	JU37	JU211	613.708215573	12	130	;
PI73	JU37	JU175	135.149540888	12	120	;
PI74	JU38	JU58	389.978065645	12	120	;
PI75	JU39	JU224	1127.82931479	12	140	;
PI76	JU39	JU212	1118.88571331	12	130	;
PI77	JU39	JU173	709.25904712	12	130	;
PI78	JU40	JU149	216.267363574	12	130	;
PI79	JU42	JU44	284.411678333	12	130	;
PI80	JU43	JU163	2111.30610847	12	130	;
PI81	JU43	JU230	1133.15642852	12	120	;
PI82	JU43	JU71	351.234236753	12	120	;
PI83	JU44	JU129	662.496032568	12	140	;
PI84	JU45	JU138	3357.4572892	12	120	;
PI85	JU46	JU160	3110.99972669	12	120	;
PI86	JU46	JU90	3494.21227417	12	120	;
PI87	JU46	JU94	1483.76938214	12	130	;
PI88	JU47	JU50	2624.35845879	12	130	;
PI89	JU47	JU82	2294.90758465	12	140	;
PI90	JU47	JU119	1814.82579442	12	130	;
PI91	JU48	JU225	681.776338559	12	120	;
PI92	JU48	JU107	376.793518207	12	140	;
PI93	JU48	JU213	954.377888481	12	140	;
PI94	JU49	JU120	217.605089314	12	130	;
PI95	JU49	JU196	2179.15783015	12	120	;
PI96	JU49	JU194	3182.8645114	12	120	;
PI97	JU50	JU119	935.362458297	12	120	;
PI98	JU51	JU103	657.674149864	12	120	;
PI99	JU51	JU204	3359.16198844	12	130	;
PI100	JU51	JU149	596.290154963	12	120	;
PI101	JU51	JU143	1564.73417112	12	130	;
PI102	JU52	JU193	2675.85280917	12	140	;
PI103	JU52	JU115	2154.60020355	12	130	;
PI104	JU52	JU228	3118.85343806	12	130	;
PI105	JU53	JU196	2151.69195858	12	120	;
PI106	JU53	JU110	2884.30096444	12	120	;
PI107	JU53	JU142	1460.58661444	12	120	;
PI108	JU53	JU197	3051.10154242	12	120	;
PI109	JU54	JU115	3275.41369848	12	130	;
PI110	JU54	JU87	2794.90145174	12	120	;
PI111	JU55	JU224	3430.84288838	12	130	;
PI112	JU55	JU91	2473.64527682	12	120	;
PI113	JU55	JU207	1652.02122208	12	140	;
PI114	JU56	JU233	912.103086886	12	130	;
PI115	JU57	JU168	1709.07438907	12	130	;
PI116	JU57	JU153	1989.05705189	12	130	;
PI117	JU58	JU64	2129.35638575	12	120	;
PI118	JU58	JU205	1513.60306438	12	130	;
PI119	JU58	JU159	3058.97916365	12	120	;
PI120	JU59	JU151	1549.88604807	12	140	;
PI121	JU60	JU168	2866.73694383	12	120	;
PI122	JU60	JU153	753.526628925	12	120	;
PI123	JU60	JU227	2281.63666293	12	120	;
PI124	JU60	JU79	1460.84397411	12	130	;
PI125	JU61	JU97	532.114777386	12	130	;
PI126	JU62	JU190	3309.55070314	12	140	;
PI127	JU63	JU121	2350.30724475	12	120	;
PI128	JU64	JU159	1222.22165543	12	120	;
PI129	JU65	JU133	3454.14276779	12	120	;
PI130	JU66	JU186	269.212308116	12	130	;
PI131	JU66	JU180	3223.4178848	12	140	;
PI132	JU67	JU161	1909.68683537	12	120	;
PI133	JU67	JU133	1845.01563502	12	140	;
PI134	JU68	JU163	2705.6538748	12	130	;
PI135	JU68	JU92	100.443777746	12	130	;
PI136	JU69	JU222	904.722214486	12	140	;
PI137	JU71	JU136	312.65436237	12	130	;
PI138	JU71	JU140	256.456373582	12	140	;
PI139	JU72	JU89	483.53854584	12	120	;
PI140	JU72	JU156	2721.86777923	12	130	;
PI141	JU72	JU87	2026.84848811	12	130	;
PI142	JU73	JU197	2225.53205532	12	120	;
PI143	JU73	JU181	1497.23751462	12	120	;
PI144	JU73	JU191	3193.34461921	12	140	;
PI145	JU75	JU194	727.001381101	12	130	;
PI146	JU75	JU114	2125.01967989	12	130	;
PI147	JU76	JU126	1600.79043345	12	130	;
PI148	JU77	JU148	1055.73190858	12	130	;
PI149	JU77	JU181	3498.96952485	12	130	;
PI150	JU78	JU185	3191.12183305	12	140	;
PI151	JU78	JU163	870.787662027	12	120	;
PI152	JU78	JU182	3200.45010834	12	130	;
PI153	JU78	JU167	1917.005499	12	130	;
PI154	JU79	JU153	1822.64222386	12	140	;
PI155	JU79	JU194	1638.68113209	12	130	;
PI156	JU79	JU99	2778.22011249	12	130	;
PI157	JU80	JU169	1751.79996283	12	120	;
PI158	JU80	JU111	1013.63668023	12	120	;
PI159	JU81	JU224	1046.19813613	12	140	;
PI160	JU83	JU108	3220.97826141	12	130	;
PI161	JU83	JU116	1862.43678167	12	120	;
PI162	JU83	JU167	1835.77576893	12	140	;
PI163	JU84	JU183	1464.67012011	12	130	;
PI164	JU85	JU132	679.221427204	12	140	;
PI165	JU85	JU149	2406.96618699	12	130	;
PI166	JU86	JU192	304.395483132	12	140	;
PI167	JU86	JU184	1565.3154381	12	130	;
PI168	JU86	JU108	2947.00554301	12	140	;
PI169	JU87	JU193	1638.06645185	12	140	;
PI170	JU88	JU91	2320.74977902	12	120	;
PI171	JU89	JU101	780.560817337	12	130	;
PI172	JU89	JU151	2800.29510598	12	140	;
PI173	JU90	JU176	1420.94362014	12	130	;
PI174	JU90	JU174	488.87526871	12	130	;
PI175	JU92	JU163	521.077017768	12	120	;
PI176	JU93	JU208	3371.38486957	12	130	;
PI177	JU93	JU135	152.548706683	12	120	;
PI178	JU94	JU130	600.277832796	12	130	;
PI179	JU94	JU179	1395.10874538	12	140	;
PI180	JU94	JU174	2671.06598119	12	140	;
PI181	JU95	JU130	2248.75132214	12	140	;
PI182	JU96	JU180	2551.01173847	12	120	;
PI183	JU96	JU183	2225.24947582	12	120	;
PI184	JU97	JU160	2022.17906063	12	130	;
PI185	JU99	JU114	2680.7143227	12	120	;
PI186	JU100	JU188	197.291959764	12	130	;
PI187	JU101	JU164	821.597715895	12	120	;
PI188	JU102	JU122	838.282951487	12	140	;
PI189	JU102	JU157	1556.14284733	12	120	;
PI190	JU102	JU198	3397.3699383	12	120	;
PI191	JU103	JU204	663.464601857	12	120	;
PI192	JU104	JU177	2162.74588	12	140	;
PI193	JU105	JU217	151.165848827	12	140	;
PI194	JU106	JU139	3483.85871846	12	140	;
PI195	JU106	JU212	1550.46174927	12	140	;
PI196	JU106	JU197	2485.55275615	12	120	;
PI197	JU107	JU225	3361.74211742	12	120	;
PI198	JU107	JU207	282.579360038	12	120	;
PI199	JU108	JU116	3403.47993575	12	140	;
PI200	JU109	JU121	2205.36449738	12	130	;
PI201	JU109	JU178	398.844385457	12	140	;
PI202	JU109	JU195	2724.41778253	12	120	;
PI203	JU109	JU187	2767.92255759	12	130	;
PI204	JU110	JU129	1182.55137335	12	120	;
PI205	JU110	JU125	1967.06057207	12	120	;
PI206	JU112	JU146	1396.29619795	12	140	;
PI207	JU112	JU117	1129.18977878	12	120	;
PI208	JU112	JU206	516.304953324	12	130	;
PI209	JU112	JU119	3434.7959661	12	120	;
PI210	JU113	JU194	2071.33339464	12	130	;
PI211	JU113	JU196	1475.43972007	12	120	;
PI212	JU115	JU208	2583.9891343	12	120	;
PI213	JU115	JU135	2916.76851591	12	140	;
PI214	JU116	JU188	1774.84653957	12	140	;
PI215	JU117	JU191	1781.32541206	12	120	;
PI216	JU117	JU124	714.49402867	12	130	;
PI217	JU118	JU184	697.183293134	12	130	;
PI218	JU118	JU199	2963.64377258	12	120	;
PI219	JU121	JU187	697.286034985	12	120	;
PI220	JU121	JU166	2898.94447619	12	120	;
PI221	JU122	JU198	2731.25456253	12	130	;
PI222	JU123	JU172	1010.19865403	12	130	;
PI223	JU124	JU191	2247.30478571	12	140	;
PI224	JU127	JU201	1733.08688185	12	120	;
PI225	JU127	JU195	1339.24513067	12	130	;
PI226	JU127	JU166	2952.76814932	12	140	;
PI227	JU128	JU209	902.645671272	12	130	;
PI228	JU128	JU154	1959.55241275	12	130	;
PI229	JU130	JU176	218.987653393	12	130	;
PI230	JU130	JU174	1518.0927586	12	140	;
PI231	JU131	JU164	3273.23164668	12	130	;
PI232	JU132	JU178	1893.69046163	12	120	;
PI233	JU132	JU187	399.406208128	12	140	;
PI234	JU132	JU149	1538.53418708	12	140	;
PI235	JU133	JU147	685.544359624	12	140	;
PI236	JU133	JU134	1384.16289054	12	140	;
PI237	JU134	JU223	3111.43229363	12	130	;
PI238	JU134	JU215	181.224895011	12	120	;
PI239	JU135	JU208	687.961585919	12	130	;
PI240	JU137	JU162	1235.720632	12	140	;
PI241	JU139	JU154	2465.21671056	12	120	;
PI242	JU140	JU215	757.689668352	12	120	;
PI243	JU141	JU169	1094.36179835	12	130	;
PI244	JU141	JU165	2776.00683899	12	130	;
PI245	JU144	JU147	367.910219339	12	140	;
PI246	JU144	JU165	1635.28047303	12	120	;
PI247	JU145	JU192	1661.66428429	12	120	;
PI248	JU145	JU185	3014.90250193	12	130	;
PI249	JU145	JU199	3420.58685243	12	130	;
PI250	JU146	JU171	1942.90196137	12	140	;
PI251	JU146	JU206	638.952331067	12	120	;
PI252	JU150	JU202	2433.60536837	12	140	;
PI253	JU150	JU164	3116.81160801	12	130	;
PI254	JU150	JU181	1514.62550038	12	140	;
PI255	JU150	JU231	2537.46588396	12	120	;
PI256	JU151	JU171	2957.7246277	12	120	;
PI257	JU152	JU230	3301.87661228	12	130	;
PI258	JU153	JU168	472.371784816	12	140	;
PI259	JU154	JU177	2495.58064419	12	130	;
PI260	JU154	JU189	517.549855882	12	140	;
PI261	JU155	JU220	2250.25780131	12	120	;
PI262	JU155	JU214	2287.45341251	12	140	;
PI263	JU155	JU175	2055.7973252	12	130	;
PI264	JU156	JU228	1167.8624594	12	140	;
PI265	JU156	JU186	2223.41802114	12	120	;
PI266	JU156	JU180	329.478717983	12	140	;
PI267	JU157	JU210	660.581994888	12	120	;
PI268	JU157	JU198	367.41679893	12	120	;
PI269	JU158	JU218	919.315743585	12	140	;
PI270	JU158	JU226	1543.02269894	12	120	;
PI271	JU159	JU205	3215.55998867	12	140	;
PI272	JU160	JU198	333.001895566	12	130	;
PI273	JU165	JU169	519.729714117	12	140	;
PI274	JU165	JU170	315.384809491	12	120	;
PI275	JU166	JU195	481.780603438	12	130	;
PI276	JU166	JU177	2421.35176873	12	140	;
PI277	JU167	JU188	2405.37144109	12	120	;
PI278	JU167	JU190	957.51366874	12	120	;
PI279	JU168	JU227	1404.72385613	12	140	;
PI280	JU169	JU170	2106.81416165	12	130	;
PI281	JU172	JU233	2183.08844773	12	120	;
PI282	JU172	JU229	3193.4141962	12	130	;
PI283	JU173	JU212	2666.40289646	12	120	;
PI284	JU174	JU176	1893.33153049	12	130	;
PI285	JU177	JU189	2062.73233438	12	130	;
PI286	JU178	JU187	967.084828834	12	130	;
PI287	JU180	JU232	1193.99650733	12	140	;
PI288	JU181	JU199	3007.65756427	12	140	;
PI289	JU182	JU216	925.862478675	12	130	;
PI290	JU182	JU226	1787.54534938	12	130	;
PI291	JU183	JU232	2665.92973271	12	130	;
PI292	JU184	JU199	1937.51877713	12	130	;
PI293	JU185	JU192	2395.41806168	12	120	;
PI294	JU186	JU232	3447.13731246	12	120	;
PI295	JU188	JU190	2582.55236396	12	120	;
PI296	JU189	JU197	2585.75745911	12	120	;
PI297	JU200	JU220	634.679761974	12	140	;
PI298	JU202	JU216	2486.64040062	12	120	;
PI299	JU202	JU229	3414.4179424	12	120	;
PI300	JU205	JU214	1659.3441414	12	140	;
PI301	JU207	JU224	2576.36928905	12	120	;
PI302	JU207	JU225	1999.45834662	12	130	;
PI303	JU211	JU214	1008.32216318	12	140	;
PI304	JU213	JU225	2549.53191378	12	120	;
PI305	JU215	JU217	3431.5950373	12	130	;
PI306	JU216	JU233	2905.16812836	12	130	;
PI307	JU216	JU229	1481.88370163	12	140	;
PI308	JU218	JU219	3021.00843078	12	120	;
PI309	JU229	JU233	1801.97142575	12	120	;

[PUMPS]
;ID	Node1	Node2	Parameters
PU1	JU164	JU73	HEAD 1 	PATTERN 2	;

[TIMES]
Duration		24:00
Hydraulic Timestep	1:00
Quality Timestep	0:05
Pattern Timestep	1:00
Pattern Start	0:00
Report Timestep	1:00
Report Start	0:00
Start Clocktime	12 am
Statistic		NONE

[COORDINATES]
;Node	X - Coord	Y - Coord
JU1	-32.9737613389	-51.3533742893
JU2	49.2733982146	101.061524762
JU4	128.015929664	11.2485241122
JU5	-100.847937931	-51.1187648304
JU6	14.2423857622	-76.6459025643
JU7	-14.9214118685	-71.2060744211
JU8	48.3158393812	67.41937822
JU9	-99.2142880821	-77.2535706552
JU10	51.0186513547	-106.984689927
JU11	-41.074768961	-103.212117341
JU12	110.704689052	-50.6989248072
JU13	102.402886833	-62.9210802017
JU14	-95.4111866547	54.724761229
JU15	-97.3824641379	83.3345648885
JU16	120.638486601	37.6211589223
JU17	72.923261885	-91.8285712895
JU18	-4.47308383386	52.9595218709
JU19	19.5695561477	105.504036082
JU20	106.715688179	-70.8846432821
JU21	-118.878313574	-23.7405528693
JU22	71.1438113316	105.880418857
JU23	-46.0769269181	47.8849507652
JU24	-11.3076458297	-112.649100347
JU25	7.24062174862	69.8524795283
JU26	-62.6806424457	-21.5150878563
JU27	41.2221252783	-91.0026891346
JU28	102.371418387	45.8941556941
JU29	86.3009294676	-59.2266616551
JU30	-32.2585158254	63.1827747298
JU31	-29.552707557	-32.6535705869
JU32	-27.0742849851	57.9740274722
JU33	42.2626132158	87.9832905409
JU34	-52.7351142169	5.94382460066
JU35	74.4318133244	-18.3473263786
JU36	11.265643085	97.8857908589
JU37	-18.3322516142	-125.317060426
JU38	44.6219321626	-119.183614882
JU39	-61.8626594752	57.5428188598
JU40	-124.454103277	29.6038622689
JU41	-25.7771850212	66.0998814007
JU42	-9.11030337452	75.2210930629
JU43	65.9952216286	70.7294255321
JU44	-8.79822392301	68.93727382
JU45	-101.282934926	75.6458861437
JU46	-11.7192001105	114.58667586
JU47	-41.6810761501	-58.7366523752
JU48	-78.2586137117	100.970813096
JU49	-65.558822679	-31.3770766518
JU50	-46.0079103686	-52.2443480769
JU51	-111.366931836	39.9839518226
JU52	4.09503944406	-83.3583442385
JU53	-28.9524150017	23.5760959104
JU54	-8.67714063933	-74.1695376632
JU55	-56.7452183421	78.8732795098
JU56	23.2434006129	44.6186849068
JU57	-81.1971903259	-101.246741302
JU58	35.597387344	-121.419694579
JU59	16.5830890307	-44.6772923112
JU60	-69.3391679205	-90.0908756829
JU61	-7.35153217168	93.2935972095
JU62	123.587128897	-15.2730481991
JU63	-97.1395331416	1.95793794723
JU64	39.2516451493	-128.254425156
JU65	108.120263626	18.2012422814
JU66	60.2154903834	-65.0881636792
JU67	104.791311126	9.76129640638
JU68	53.507667938	57.3437823966
JU69	69.1232973095	-103.296740464
JU71	74.8977151839	70.461191018
JU72	23.7991286034	-55.357042218
JU73	-12.6006972333	4.69733619314
JU74	47.3125524733	91.8223477913
JU75	-81.7374724983	-59.2387402371
JU76	127.546506234	21.5139012677
JU77	3.87550976077	17.346592543
JU78	73.8103045738	7.69973710203
JU79	-77.0438088892	-76.3532568698
JU80	117.817214432	55.8215787434
JU81	-82.441985059	61.4936212949
JU82	-46.30522858	-66.9301281953
JU83	95.8965766604	-39.526826285
JU84	47.8848967145	-94.9981355934
JU85	-118.69556683	6.68139003405
JU86	59.6257958398	-30.2112260613
JU87	7.36535416649	-65.3623437256
JU88	-40.0397382625	84.837471838
JU89	21.1024868089	-36.5935288546
JU90	-19.3715261967	123.927326416
JU91	-46.0785124975	82.6967736096
JU92	55.1885810665	50.4153599404
JU93	-40.743662932	-95.4094970524
JU94	-25.9440823755	107.754177231
JU95	-46.6757977988	115.025286742
JU96	47.4950628435	-84.0212957518
JU97	-3.81446640111	99.4879817367
JU98	94.2091527334	-68.4161475785
JU99	-91.4914212367	-74.6125565587
JU100	121.075633926	-30.5591090025
JU101	12.2727420748	-21.0800231449
JU102	28.5022567343	115.297664182
JU103	-100.88157366	44.9781779342
JU104	-81.2573107598	6.98057084423
JU105	67.9772914928	28.4936556783
JU106	-48.8633084173	30.7729299144
JU107	-67.9377452384	98.0721557667
JU108	81.941236894	-41.9549119454
JU109	-113.219420389	-12.077619991
JU110	-11.3516125	42.6698509957
JU111	124.360854384	55.6814699444
JU112	-20.5012058823	-38.8673713019
JU113	-62.0788970045	-39.1326023131
JU114	-89.6854288666	-65.6903455368
JU115	-17.0615644969	-86.2616947076
JU116	100.460879463	-33.2773827005
JU117	-26.1748457973	-20.6593075067
JU118	35.7400665784	-19.3808424932
JU119	-37.1864788127	-44.838226929
JU120	-70.3243859573	-24.9648743558
JU121	-101.908509098	-5.52691693352
JU122	26.8958760973	124.428991853
JU123	33.9560501081	71.4659311243
JU124	-28.6523642184	-10.4467525216
JU125	-4.3312916787	39.6157795569
JU126	132.592939164	13.8343370245
JU127	-96.1589542343	-31.5631209826
JU128	-77.4415450774	26.8519885889
JU129	-10.1562965807	58.7349580397
JU130	-37.9294203728	115.57933849
JU131	-11.5225920137	-19.2671670609
JU132	-125.232475495	9.32440894768
JU133	101.903609949	22.5217299248
JU134	88.8571640162	28.0992797272
JU135	-31.1092692322	-88.6614489178
JU136	76.6670141076	78.8744092688
JU137	-124.469799578	-47.777893087
JU138	-105.202153349	79.4595914878
JU139	-59.6772743032	27.0343004672
JU140	77.8433788636	56.5080801042
JU141	103.835140063	80.1272563954
JU142	-22.1699756149	44.4043016691
JU143	-107.315883347	51.8878438375
JU144	101.099374545	53.8967819112
JU145	47.6223287568	-7.38076778044
JU146	-7.91800527072	-41.8722653185
JU147	107.395001922	38.3446830143
JU148	2.31297259898	24.2872300307
JU149	-119.522876123	23.1376606029
JU150	17.6465016768	8.81058250971
JU151	12.8414189061	-39.1765006483
JU152	70.2066654374	99.2405445725
JU153	-78.9858470494	-91.4458467009
JU154	-68.9926599527	18.3497412174
JU155	-1.79177881239	-117.083432538
JU156	37.5666534946	-65.1753580525
JU157	26.1105176959	103.584119578
JU158	100.721138322	-46.1687732082
JU159	30.6652456552	-127.842334224
JU160	2.92175663337	109.662281146
JU161	108.111644283	3.81913877958
JU162	-121.01178224	-41.0673053637
JU163	62.3950709848	45.5822193942
JU164	1.69509947382	-7.24852306507
JU165	98.4754892373	70.8529902475
JU166	-91.2851540838	-15.1325959977
JU167	99.5125744184	-15.8355432919
JU168	-72.3717522687	-101.036924013
JU169	107.64073559	72.235473622
JU170	96.8007082116	79.2712343272
JU171	2.87900378849	-40.2210414475
JU172	31.8007582042	52.5069966422
JU173	-55.8470202565	53.9781810791
JU174	-28.1371555905	118.256107314
JU175	-12.3552594973	-122.901436626
JU176	-30.7421250026	125.662018034
JU177	-74.6840160774	3.9180478563
JU178	-125.317013289	-4.32337352468
JU179	-27.3117244304	99.0827517355
JU180	52.2784025502	-73.0341301135
JU181	9.07230156853	4.96480755334
JU182	71.480935	-3.31044944477
JU183	56.3923821012	-89.2710583622
JU184	43.1902061471	-23.8003307995
JU185	58.7526666014	-2.49474645461
JU186	53.5851681479	-64.17721427
JU187	-116.151528315	-2.58541063835
JU188	112.196945084	-25.6486271689
JU189	-57.8766952237	10.8989651308
JU190	115.025998477	-16.1497938446
JU191	-22.2925222856	-5.48201209179
JU192	56.1491433421	-15.3959712158
JU193	8.11752785292	-75.2866677409
JU194	-71.6788073613	-52.6917947495
JU195	-104.860107897	-24.0530869741
JU196	-53.3475495333	-15.323461568
JU197	-37.1923609019	16.6143080934
JU198	18.6384602909	117.945387775
JU199	32.4339795362	-9.93420755033
JU200	27.9033089395	-105.771026605
JU201	-98.3495610018	-44.2572633487
JU202	31.8773001201	20.3201160973
JU203	46.4750087201	73.638259086
JU204	-103.36459321	38.0380292324
JU205	21.3044294815	-125.044786862
JU206	-14.03703838	-46.2140984223
JU207	-65.7127948702	85.0370544774
JU208	-32.181517381	-96.4359776477
JU209	-81.7337894231	31.8092856685
JU210	15.3108886973	86.6921224284
JU211	-7.70275472944	-131.26896719
JU212	-53.5555035182	46.1305310667
JU213	-86.8022888603	92.646340496
JU214	5.45092763952	-126.912690162
JU215	80.1044171234	40.5833649274
JU216	44.8159422906	21.7082805921
JU217	72.7632548444	33.2783826124
JU218	87.5306292356	-50.0592165456
JU219	77.2964669241	-33.3908045788
JU220	6.89217905996	-108.632461946
JU221	-21.0029553425	-112.079733628
JU222	77.0516316083	-104.718290025
JU223	85.9416851025	21.563645691
JU224	-67.9185983374	69.8654043111
JU225	-75.4005527855	93.1801522759
JU226	86.1126720509	-22.6830880412
JU227	-64.1205668036	-99.8217335042
JU228	23.1773639846	-75.5926195788
JU229	35.6868338108	33.1329888383
JU230	67.8857258951	88.2453947788
JU231	18.2022956355	16.746025409
JU232	64.3588647484	-79.7266281028
JU233	31.7454055542	40.7699841563
R70	52.763697833	108.024486813
T3	-117.878491888	-49.338568931

[VALVES]
;ID	Node1	Node2	Diameter	Type	Setting	MinorLoss

[PATTERNS]
;ID	Multipliers
1	1.0000	1.0000	1.0000	0.9000	0.9000	0.9000
1	.7000	.7000	0.7000	0.6000	0.6000	0.6000
1	1.2000	1.2000	1.2000	1.3000	1.3000	1.3000
1	1.2000	1.2000	1.2000	1.1000	1.1000	1.1000
2	1.0000	1.0000	1.0000	1.0000	1.0000	1.0000
2	1.0000	1.0000	1.0000	1.0000	1.0000	1.0000
2	1.0000	1.0000	1.0000	1.0000	1.0000	1.0000
2	1.0000	1.0000	1.0000	1.0000	1.0000	1.0000

[TAGS]

[DEMANDS]

[STATUS]

[CURVES]
;ID 	X-Value	 Y-Value
1	10	280

[CONTROLS]

[RULES]

[ENERGY]
