[TITLE]
Generated synthetic network;

[JUNCTIONS]
;ID	Elev	Demand	Pattern
JU1	717.381913726	128.208785362	;
JU2	714.360248126	128.329214802	;
JU3	713.934995854	128.549468738	;
JU4	712.027752082	127.885526581	;
JU5	718.870670649	128.073924185	;
JU6	719.532626689	127.927448862	;
JU7	711.758450376	127.671031111	;
JU8	715.425553116	127.955936274	;
JU9	718.594671574	127.98639622	;
JU10	716.079049814	129.009040323	;
JU11	712.64932122	128.255126122	;
JU12	717.630298446	128.005418893	;
JU13	711.970936307	127.764426367	;
JU14	711.919046255	127.773661353	;
JU15	719.813101415	127.960045448	;
JU16	714.300688687	128.345907225	;
JU17	716.063681318	129.515060926	;
JU19	713.934995854	128.549468738	;
JU20	713.910636525	128.941953673	;
JU21	715.716882722	128.903694884	;
JU22	712.550160165	127.867236446	;
JU23	714.247706609	128.354194416	;
JU24	712.56272972	128.031772318	;
JU25	715.665319125	128.712195692	;
JU26	714.49688082	128.386083579	;
JU27	715.742532405	129.079609749	;
JU28	713.513143846	128.295876247	;
JU29	716.072940664	129.131679927	;
JU30	714.196728449	129.104839345	;
JU31	715.556666908	128.680392951	;
JU32	716.056239056	129.534644867	;
JU33	716.05567976	129.485775245	;
JU34	719.928622865	127.925688658	;
JU35	714.987559376	128.452732834	;
JU36	713.524746008	127.952751144	;
JU37	712.766927966	128.309496194	;
JU38	714.919160148	128.435657476	;
JU39	713.384761422	128.406981469	;
JU40	717.873779212	128.008949505	;
JU41	714.676072258	128.405095279	;
JU42	716.064100581	129.377505366	;
JU43	715.826929183	128.722940078	;
JU44	719.282182131	127.941990011	;
JU45	712.74532609	127.991274586	;
JU47	712.414399032	127.928054959	;
JU48	714.604837762	129.140804428	;
JU49	713.899800589	128.458101094	;
JU50	714.482861197	128.493722119	;
JU51	717.610653006	127.964111547	;
JU52	716.251873358	128.314768341	;
JU53	715.956291067	129.014805044	;
JU54	714.482861197	128.493722119	;
JU55	716.059960187	129.524852896	;
JU56	714.840796434	128.555945729	;
JU57	711.758450376	127.671031111	;
JU58	716.251873358	128.314768341	;
JU59	719.581143895	127.931709177	;
JU60	712.550160165	127.867236446	;
JU61	712.574151614	127.983700621	;
JU62	712.027752082	127.885526581	;
JU63	715.195297704	128.611017195	;
JU64	715.897966268	128.956367603	;
JU65	714.237400912	129.062532482	;
JU66	715.173685084	129.110207089	;
JU67	715.562515337	128.682050988	;
JU68	714.755655883	128.405868371	;

[RESERVOIRS]
;ID	Head	Pattern
R46	7056	;

[TANKS]
;ID	Elevation	InitLevel	MinLevel	MaxLevel	Diameter	MinVol	VolCurve
T18	772.185555312	3.25	1.00	10.00	30.00	0.00;

[PIPES]
;ID	Node1	Node2	Length	Diameter	Roughness	MinorLoss	Status
PI1	JU1	JU40	1693.31660338	12	120	;
PI2	JU1	JU52	1651.72588151	12	140	;
PI3	JU1	JU5	3025.79313591	12	140	;
PI4	JU2	JU16	534.261801678	12	120	;
PI5	JU2	JU68	3159.83253439	12	140	;
PI6	JU2	JU23	445.113692026	12	120	;
PI7	JU3	JU19	386.501542908	12	140	;
PI8	JU3	JU20	1117.41560113	12	120	;
PI9	JU3	JU21	661.281815928	12	120	;
PI10	JU4	JU11	3452.18312994	12	140	;
PI11	JU4	JU62	2369.37369546	12	130	;
PI12	JU4	JU14	1385.73375916	12	130	;
PI13	JU5	JU12	2407.02555774	12	130	;
PI14	JU5	JU15	273.412061909	12	120	;
PI15	JU6	JU34	1470.42267341	12	120	;
PI16	JU6	JU9	3165.89838635	12	140	;
PI17	JU6	JU44	2613.09060643	12	130	;
PI18	JU6	JU15	855.890202956	12	120	;
PI19	JU6	JU51	773.426831283	12	140	;
PI20	JU6	JU59	315.467372065	12	120	;
PI21	JU7	JU57	859.068121839	12	140	;
PI22	JU7	JU13	2575.95961177	12	120	;
PI23	JU7	JU14	1064.33419456	12	120	;
PI24	JU8	JU12	2439.49521689	12	130	;
PI25	JU8	JU51	732.361485568	12	120	;
PI26	JU8	JU36	2236.34557197	12	120	;
PI27	JU8	R46	2404.68656594	12	140	;
PI28	JU9	JU12	683.639438696	12	140	;
PI29	JU10	JU64	2931.41324394	12	120	;
PI30	JU10	JU29	1374.50324975	12	140	;
PI31	JU10	JU53	1852.21062118	12	140	;
PI32	JU11	JU49	3122.65827866	12	140	;
PI33	JU11	JU37	2630.68436748	12	140	;
PI34	JU13	JU47	2735.89760735	12	130	;
PI35	JU13	JU14	1410.1800338	12	130	;
PI36	JU15	JU34	3454.84346737	12	130	;
PI37	JU16	JU41	771.08998415	12	120	;
PI38	JU16	JU23	641.152904581	12	120	;
PI39	JU17	JU32	1869.26671595	12	120	;
PI40	JU17	JU33	2739.69205304	12	140	;
PI41	JU17	JU42	961.464475158	12	120	;
PI42	JU17	JU55	3160.41215435	12	120	;
PI43	JU20	JU65	1088.60910654	12	140	;
PI44	JU20	JU30	3479.98131167	12	120	;
PI45	JU21	JU27	3459.69346239	12	120	;
PI46	JU21	JU64	1271.57115253	12	120	;
PI47	JU21	JU53	1252.40067146	12	120	;
PI48	JU22	JU36	3037.08417001	12	140	;
PI49	JU22	JU60	387.121667287	12	120	;
PI50	JU23	JU26	1599.78028436	12	140	;
PI51	JU24	JU61	874.393799224	12	140	;
PI52	JU24	JU45	1750.45045293	12	130	;
PI53	JU25	JU49	688.698082799	12	140	;
PI54	JU25	JU67	2580.63819392	12	130	;
PI55	JU25	JU43	2482.90227732	12	130	;
PI56	JU26	JU41	3156.59708555	12	130	;
PI57	JU27	JU66	151.634392586	12	130	;
PI58	JU28	JU50	1594.42962041	12	130	;
PI59	JU28	JU54	1220.03024723	12	120	;
PI60	JU29	JU42	1365.20899453	12	120	;
PI61	JU29	JU53	178.667466359	12	130	;
PI62	JU30	JU48	3145.73061181	12	140	;
PI63	JU30	JU65	944.302850276	12	120	;
PI64	JU31	JU56	1696.21098107	12	140	;
PI65	JU31	JU43	1233.0436748	12	120	;
PI66	JU31	JU63	1737.2099657	12	130	;
PI67	JU32	JU55	2413.61220785	12	140	;
PI68	JU32	JU33	3349.37196649	12	130	;
PI69	JU33	JU42	1483.97599992	12	120	;
PI70	JU34	JU59	1444.91003004	12	130	;
PI71	JU35	JU41	2311.67886853	12	120	;
PI72	JU35	JU68	611.890037142	12	130	;
PI73	JU35	JU38	2801.89076936	12	120	;
PI74	JU36	JU45	283.795550629	12	130	;
PI75	JU37	JU39	1977.33782932	12	140	;
PI76	JU38	JU41	2670.60517671	12	130	;
PI77	JU38	JU68	2675.74330195	12	130	;
PI78	JU39	JU49	1031.01979148	12	140	;
PI79	JU40	JU51	2337.56211014	12	120	;
PI80	JU40	JU44	2971.21377178	12	120	;
PI81	JU43	JU67	110.493219718	12	120	;
PI82	JU44	JU59	2145.2103017	12	120	;
PI83	JU45	JU61	851.010050401	12	130	;
PI84	JU45	JU47	1969.26404837	12	140	;
PI85	JU47	JU61	2025.89765181	12	140	;
PI86	JU48	JU65	148.679333025	12	130	;
PI87	JU48	JU66	1033.85458131	12	140	;
PI88	JU50	JU56	3385.78994937	12	120	;
PI89	JU50	JU63	457.699194679	12	120	;
PI90	JU52	JU58	3414.15110496	12	120	;
PI91	JU54	JU56	1743.73215582	12	120	;
PI92	JU54	JU63	1622.44361809	12	140	;
PI93	JU63	JU67	2486.4048833	12	120	;

[PUMPS]
;ID	Node1	Node2	Parameters
PU1	JU28	T18	HEAD 1 	PATTERN 2	;

[TIMES]
Duration		24:00
Hydraulic Timestep	1:00
Quality Timestep	0:05
Pattern Timestep	1:00
Pattern Start	0:00
Report Timestep	1:00
Report Start	0:00
Start Clocktime	12 am
Statistic		NONE

[COORDINATES]
;Node	X - Coord	Y - Coord
JU1	-39.8233333607	-71.879582833
JU2	47.6671261589	-48.1120306564
JU3	54.151290776	30.1296850301
JU4	-59.6951920992	42.6253348884
JU5	-32.0101448156	-59.6031844003
JU6	-4.92419979964	-57.9948747418
JU7	-81.0799415284	26.5446933887
JU8	-42.2639760445	-38.0325308215
JU9	-14.0131104855	-43.0775057539
JU10	41.8117737777	-3.11247565482
JU11	-51.6728561441	55.425327335
JU12	-29.5716081923	-42.2509878201
JU13	-73.3467795128	19.1536571603
JU14	-70.8468670379	31.6400171869
JU15	-12.8124833081	-62.136135855
JU16	52.2603154984	-55.3548238387
JU17	1.74439461802	9.60039338874
JU19	46.7115263674	34.5572704756
JU20	63.8403276643	41.8864049229
JU21	56.7203698384	12.1313195016
JU22	-73.1123633018	-29.7089510487
JU23	46.8465514663	-61.4067540698
JU24	-51.8706142153	-3.74612557341
JU25	-23.3681880339	62.6510296557
JU26	57.5932895623	-64.8253741499
JU27	72.1310563044	12.6913110463
JU28	30.4096451107	72.6152952684
JU29	30.0839444342	0.625504648165
JU30	73.8680299138	39.9115200004
JU31	-1.39457687261	75.2092818494
JU32	-6.79595598971	5.74646232729
JU33	2.88043038481	0.668536854741
JU34	3.79847569834	-63.3210192059
JU35	71.7590103165	-44.2185015034
JU36	-59.9729423661	-26.0122551599
JU37	-53.736391767	65.4320703946
JU38	69.3398937136	-38.3668603153
JU39	-46.485854243	69.2655004634
JU40	-25.1427753708	-72.4568801764
JU41	65.4807020518	-53.3861161857
JU42	13.9265027238	2.83873859834
JU43	-14.0485487291	69.4216161977
JU44	-7.99430865319	-74.7977388658
JU45	-61.0275389581	-8.56128723551
JU47	-67.3041237166	4.87667674134
JU48	81.3321495687	33.9551561975
JU49	-39.0181263875	62.0597023737
JU50	18.8434163692	67.5302906194
JU51	-24.3250401756	-53.8477146958
JU52	-52.7343704457	-74.318433544
JU53	41.8978714734	5.66074654935
JU54	19.6083721473	76.527283119
JU55	-7.73133648738	13.7767510153
JU56	11.1615646925	78.5358109646
JU57	-89.2361497234	26.4083829355
JU58	-60.1535119409	-74.0288817412
JU59	3.2936503645	-71.7479457293
JU60	-80.4931303361	-31.2135467438
JU61	-58.0998487302	0.946239741322
JU62	-53.4095374266	38.459481215
JU63	6.43611942331	66.2040701366
JU64	53.3140080331	0.254708083607
JU65	74.942657835	46.2099340899
JU66	80.9844015194	20.3189381397
JU67	-10.1108467484	61.0754281553
JU68	60.2289314431	-38.7489625981
R46	-50.4448567761	-38.7621930455
T18	38.8998233222	73.9903725781

[VALVES]
;ID	Node1	Node2	Diameter	Type	Setting	MinorLoss

[PATTERNS]
;ID	Multipliers
1	1.0000	1.0000	1.0000	0.9000	0.9000	0.9000
1	.7000	.7000	0.7000	0.6000	0.6000	0.6000
1	1.2000	1.2000	1.2000	1.3000	1.3000	1.3000
1	1.2000	1.2000	1.2000	1.1000	1.1000	1.1000
2	1.0000	1.0000	1.0000	1.0000	1.0000	1.0000
2	1.0000	1.0000	1.0000	1.0000	1.0000	1.0000
2	1.0000	1.0000	1.0000	1.0000	1.0000	1.0000
2	1.0000	1.0000	1.0000	1.0000	1.0000	1.0000

[TAGS]

[DEMANDS]

[STATUS]

[CURVES]
;ID 	X-Value	 Y-Value
1	10	280

[CONTROLS]

[RULES]

[ENERGY]
