[TITLE]
Generated synthetic network;

[JUNCTIONS]
;ID	Elev	Demand	Pattern
JU1	716.059433668	128.745601466	;
JU2	716.18351413	128.301217845	;
JU3	714.424585311	128.526273776	;
JU4	713.736623522	128.460909209	;
JU5	715.947555874	128.82917148	;
JU6	712.243704246	128.189107939	;
JU7	712.7519199	128.163399467	;
JU8	715.872560679	128.784142906	;
JU9	714.654785281	128.371455983	;
JU10	714.410258731	128.436573358	;
JU11	715.296328558	128.669491635	;
JU12	715.785014372	129.194519041	;
JU13	712.166155212	128.278704275	;
JU14	715.169003643	128.906432033	;
JU15	712.083431733	128.196365559	;
JU16	716.078924057	128.752822902	;
JU17	716.484195144	128.056998142	;
JU18	714.142590112	128.445889133	;
JU20	714.200961838	128.258178763	;
JU21	713.804726499	128.479592753	;
JU22	716.995588907	128.065489725	;
JU23	714.927466638	128.597339538	;
JU24	712.000049034	128.087572076	;
JU25	715.394311374	128.880330265	;
JU27	714.187201572	128.491065557	;
JU28	716.126091175	128.767483594	;
JU29	714.780035551	128.678495443	;
JU30	715.60628952	128.526989971	;
JU31	715.746513846	128.636260515	;
JU32	714.300845938	128.469361279	;
JU33	714.085718775	128.563347454	;
JU34	714.085718775	128.563347454	;
JU35	716.027743643	128.153622085	;
JU36	714.164895842	128.468477345	;
JU37	713.928196893	128.516799217	;
JU38	715.047638455	128.832978537	;
JU39	712.459037556	128.221051871	;
JU40	715.120674719	128.451777144	;
JU41	712.145201689	127.885487323	;
JU42	712.048072366	128.15777794	;
JU43	715.82328699	129.089986542	;
JU44	715.109197099	128.548495447	;
JU45	716.065535002	128.565194662	;
JU46	715.007883899	128.335787021	;
JU47	713.928196893	128.516799217	;
JU48	714.327263906	128.387890686	;
JU49	715.36348212	128.489383558	;
JU50	714.306712151	128.337707799	;
JU51	715.289588021	128.293016524	;
JU52	715.493662017	128.31000713	;
JU53	714.521889047	128.682997347	;
JU54	712.107113789	128.218241107	;
JU55	712.058816116	128.132775107	;
JU56	712.330029724	128.054424826	;
JU57	716.502509231	128.092036651	;
JU58	714.200961838	128.258178763	;
JU59	712.210850029	128.125435957	;
JU60	717.017715889	128.084981208	;
JU61	714.521889047	128.682997347	;
JU62	714.221718025	128.457625206	;
JU63	712.204929729	128.233906107	;
JU64	716.588267803	128.149993091	;
JU65	715.804150681	129.142252792	;
JU66	715.289588021	128.293016524	;
JU67	714.406358668	128.653224481	;
JU68	716.523948874	128.106525761	;

[RESERVOIRS]
;ID	Head	Pattern
R26	7056	;

[TANKS]
;ID	Elevation	InitLevel	MinLevel	MaxLevel	Diameter	MinVol	VolCurve
T19	771.821927404	3.25	1.00	10.00	30.00	0.00;

[PIPES]
;ID	Node1	Node2	Length	Diameter	Roughness	MinorLoss	Status
PI1	JU1	JU28	1455.03467756	12	120	;
PI2	JU1	JU5	1370.56586964	12	120	;
PI3	JU1	JU31	2571.4613317	12	140	;
PI4	JU2	JU64	2424.05455303	12	120	;
PI5	JU2	JU52	961.126850232	12	140	;
PI6	JU2	JU45	708.470308977	12	130	;
PI7	JU3	JU32	1658.59823243	12	130	;
PI8	JU3	JU27	169.384491257	12	120	;
PI9	JU3	JU23	1803.86241941	12	140	;
PI10	JU4	JU37	1676.45227232	12	130	;
PI11	JU4	JU21	1818.52160189	12	140	;
PI12	JU4	JU47	457.702837566	12	140	;
PI13	JU5	JU8	1282.56966622	12	130	;
PI14	JU5	JU43	2316.13402178	12	140	;
PI15	JU5	JU45	1304.17017572	12	130	;
PI16	JU5	JU16	2028.74119459	12	130	;
PI17	JU5	JU23	3114.77698473	12	130	;
PI18	JU5	JU25	1822.72453158	12	140	;
PI19	JU6	JU63	2727.1839492	12	130	;
PI20	JU6	JU59	1500.329768	12	130	;
PI21	JU6	JU7	3142.84860058	12	120	;
PI22	JU7	JU56	1870.87368895	12	130	;
PI23	JU7	JU48	1877.16517835	12	140	;
PI24	JU7	JU39	493.82785183	12	140	;
PI25	JU8	JU11	1236.74746711	12	120	;
PI26	JU9	JU10	2215.90647532	12	130	;
PI27	JU9	JU51	270.154063441	12	130	;
PI28	JU9	JU46	2930.98465674	12	130	;
PI29	JU10	JU32	2436.00023659	12	120	;
PI30	JU10	JU18	2471.65132772	12	120	;
PI31	JU10	JU23	716.203889374	12	140	;
PI32	JU11	JU44	1730.94994364	12	130	;
PI33	JU11	JU29	2140.74059581	12	140	;
PI34	JU12	JU65	2161.35046308	12	120	;
PI35	JU12	JU43	386.990375146	12	140	;
PI36	JU13	JU63	2991.64635116	12	120	;
PI37	JU13	JU39	2496.35720531	12	130	;
PI38	JU13	JU54	2539.50720524	12	140	;
PI39	JU13	JU15	220.281648819	12	130	;
PI40	JU14	JU25	1886.31560865	12	120	;
PI41	JU14	JU38	2713.90400067	12	120	;
PI42	JU15	JU55	2385.65854196	12	140	;
PI43	JU16	JU31	2113.58819009	12	120	;
PI44	JU17	JU57	1475.67760846	12	130	;
PI45	JU17	JU68	2709.59794684	12	130	;
PI46	JU18	JU36	3327.46891049	12	120	;
PI47	JU18	JU62	1377.63495625	12	130	;
PI48	T19	JU28	219.455636117	12	140	;
PI49	JU20	JU50	1045.52272253	12	120	;
PI50	JU20	JU58	996.239630792	12	120	;
PI51	JU21	JU37	2418.98652426	12	140	;
PI52	JU21	JU47	3403.6771713	12	140	;
PI53	JU22	JU60	1103.11201884	12	130	;
PI54	JU22	JU68	2246.08382629	12	120	;
PI55	JU22	JU57	2939.05248589	12	140	;
PI56	JU24	JU42	1156.13824471	12	140	;
PI57	JU24	JU55	615.234977629	12	130	;
PI58	JU25	JU38	1080.14607243	12	130	;
PI59	R26	JU50	3081.710299	12	140	;
PI60	JU27	JU36	1313.29978902	12	140	;
PI61	JU29	JU53	3110.66755562	12	140	;
PI62	JU30	JU40	3343.61583579	12	130	;
PI63	JU30	JU49	1128.45107877	12	120	;
PI64	JU30	JU31	2805.09053929	12	120	;
PI65	JU31	JU44	2955.75647941	12	130	;
PI66	JU32	JU62	1733.63075006	12	120	;
PI67	JU33	JU67	3002.91586272	12	140	;
PI68	JU33	JU37	2776.43248733	12	140	;
PI69	JU33	JU47	2982.76689463	12	120	;
PI70	JU34	JU67	1338.73891601	12	130	;
PI71	JU34	JU37	1036.62793723	12	140	;
PI72	JU34	JU47	313.183447304	12	120	;
PI73	JU35	JU57	2327.05282117	12	140	;
PI74	JU35	JU51	2860.38514897	12	120	;
PI75	JU35	JU68	857.564819004	12	140	;
PI76	JU38	JU67	3184.78715557	12	130	;
PI77	JU40	JU48	1561.83304242	12	120	;
PI78	JU40	JU49	1020.00077789	12	140	;
PI79	JU41	JU56	221.06952395	12	130	;
PI80	JU42	JU54	2235.85175754	12	130	;
PI81	JU43	JU65	2511.61771463	12	120	;
PI82	JU44	JU48	133.132421031	12	120	;
PI83	JU46	JU52	1271.96910839	12	140	;
PI84	JU51	JU66	596.669098373	12	140	;
PI85	JU51	JU52	962.74359222	12	130	;
PI86	JU53	JU61	3106.40586299	12	140	;
PI87	JU55	JU59	2049.86655061	12	140	;
PI88	JU56	JU59	1841.79140162	12	120	;
PI89	JU60	JU64	2921.29522483	12	140	;
PI90	JU64	JU68	3480.68226664	12	120	;

[PUMPS]
;ID	Node1	Node2	Parameters
PU1	JU50	JU10	HEAD 1 	PATTERN 2	;

[TIMES]
Duration		24:00
Hydraulic Timestep	1:00
Quality Timestep	0:05
Pattern Timestep	1:00
Pattern Start	0:00
Report Timestep	1:00
Report Start	0:00
Start Clocktime	12 am
Statistic		NONE

[COORDINATES]
;Node	X - Coord	Y - Coord
JU1	-17.4710414928	-8.31613927634
JU2	33.1738273663	-34.8340631633
JU3	-37.3186055175	-41.9421403087
JU4	77.4023145816	42.1556874824
JU5	5.43122882381	-5.63053075087
JU6	-51.998580851	49.5987911794
JU7	-55.2031208077	36.8474590838
JU8	0.230210306799	14.8132601901
JU9	5.46604606	-63.4871482464
JU10	-21.4762746931	-58.6998357316
JU11	-7.87938088161	29.8287751574
JU12	43.463535429	-4.16479886845
JU13	-57.7449874351	67.0623359818
JU14	27.5868663599	26.3979247071
JU15	-43.1805829138	71.0590830868
JU16	-11.6833098151	0.417617516506
JU17	70.9613798351	-52.7343794457
JU18	-47.6416431715	-57.2456935288
JU20	-26.5069472617	-87.2029728738
JU21	76.5394548371	49.3495106295
JU22	70.259819925	-40.7478652102
JU23	-16.723576319	-35.7289898557
JU24	-26.7764070229	82.810565596
JU25	22.3799553733	17.7502373791
JU27	-53.7718830924	-42.0722142837
JU28	-27.4620172644	-15.8212332514
JU29	2.33849317237	48.5077147942
JU30	-55.8987977323	-1.57207372389
JU31	-30.9356349539	2.08975029872
JU32	-35.5240756446	-55.4806707965
JU33	55.6962621534	51.8557709479
JU34	57.5363806829	42.3149738907
JU35	50.3974598935	-59.4976922234
JU36	-58.963868483	-49.7454117252
JU37	66.8544490294	52.3526450997
JU38	33.2506716665	32.054863822
JU39	-64.824182502	48.6726714787
JU40	-64.1462418873	5.65899376075
JU41	-29.1233183644	43.6274501971
JU42	-36.3131955189	86.7218164262
JU43	31.6962643999	-2.88366875498
JU44	-30.3431096995	18.2704474203
JU45	20.1043895924	-21.4113403515
JU46	14.3454857807	-58.3527672791
JU47	67.8744577391	41.1583196672
JU48	-52.5855421844	19.0643626292
JU49	-67.6954003047	-2.72202269028
JU50	-20.5897423043	-77.2990308255
JU51	28.3273279623	-65.5281907056
JU52	25.4182420459	-52.0172112153
JU53	9.10920973385	61.6462485097
JU54	-49.0871104999	81.0436113124
JU55	-30.2624193787	71.2702313641
JU56	-38.3451827794	43.6613005512
JU57	64.9485257963	-56.4527826976
JU58	-30.8525805642	-92.384502244
JU59	-36.5622546384	56.2183303923
JU60	66.1971739683	-30.1577616433
JU61	12.7867411297	69.0576587483
JU62	-45.3300857837	-63.490549323
JU63	-61.0661303199	57.8725036986
JU64	53.1750070051	-33.4139437325
JU65	43.3544227596	1.21272515073
JU66	28.880611761	-75.2005920961
JU67	45.2409848804	43.5487953315
JU68	60.705842717	-45.8515846671
R26	-14.5553665249	-83.0532630862
T19	-34.5289730872	-18.993536152

[VALVES]
;ID	Node1	Node2	Diameter	Type	Setting	MinorLoss

[PATTERNS]
;ID	Multipliers
1	1.0000	1.0000	1.0000	0.9000	0.9000	0.9000
1	.7000	.7000	0.7000	0.6000	0.6000	0.6000
1	1.2000	1.2000	1.2000	1.3000	1.3000	1.3000
1	1.2000	1.2000	1.2000	1.1000	1.1000	1.1000
2	1.0000	1.0000	1.0000	1.0000	1.0000	1.0000
2	1.0000	1.0000	1.0000	1.0000	1.0000	1.0000
2	1.0000	1.0000	1.0000	1.0000	1.0000	1.0000
2	1.0000	1.0000	1.0000	1.0000	1.0000	1.0000

[TAGS]

[DEMANDS]

[STATUS]

[CURVES]
;ID 	X-Value	 Y-Value
1	10	280

[CONTROLS]

[RULES]

[ENERGY]
