[TITLE]
Generated synthetic network;

[JUNCTIONS]
;ID	Elev	Demand	Pattern
JU1	7101.99809512	5.27893520314	;
JU2	7088.97627649	3.97177263889	;
JU3	7074.04311111	4.35223277778	;
JU4	7096.55648148	7.88457592593	;
JU5	7067.87091364	5.38843409864	;
JU6	7076.33475566	5.60251647119	;
JU7	7108.78469157	4.73000993709	;
JU8	7054.00263957	6.1125561354	;
JU9	7059.79138203	6.20915228052	;
JU10	7078.3857716	4.15297623457	;
JU11	7070.00265432	4.69437469136	;
JU12	7061.87320602	6.04896990741	;
JU13	7017.42175926	5.27231481481	;
JU14	7046.26040737	5.92381471974	;
JU15	7072.28531019	4.40893634259	;
JU17	7088.77592697	6.56674299797	;
JU18	7085.54361714	5.37700248646	;
JU19	7083.53700399	5.08001432151	;
JU21	7114.8084375	2.4179828125	;
JU22	7054.10133102	2.25027772377	;
JU23	7102.5702348	3.50033194055	;
JU24	7054.01734584	2.28738556068	;
JU25	7097.93944126	2.88038100562	;
JU26	7131.12455954	3.54207454411	;
JU27	7075.91291664	5.46472893154	;
JU28	7051.0879286	5.41657866536	;
JU29	7043.82637074	3.81434375672	;
JU30	7119.04948785	7.46057640046	;
JU31	7069.24554321	6.21346556173	;
JU32	7069.72858679	6.63779411376	;
JU33	7087.29130556	6.05834155556	;
JU34	7082.20960995	5.5631289919	;
JU35	7070.23840572	6.13801367188	;
JU36	7087.97683147	4.91229383759	;
JU37	7076.09471864	6.18446963783	;
JU38	7044.49595319	3.81056594508	;
JU39	7031.61213628	4.38106711111	;
JU40	7050.91013657	4.25144752315	;
JU41	7054.55216088	4.08232021451	;
JU42	7056.48800625	4.3606027316	;
JU43	7056.16875174	4.31835600347	;
JU44	7067.08897569	4.61700763889	;
JU45	7076.24739062	5.38826793056	;
JU46	7041.74567901	4.29207885802	;
JU47	7110.92790638	6.2498403035	;
JU48	7040.76082043	4.10180890317	;
JU49	7073.29267939	6.36399828925	;
JU50	7065.76524306	3.61712916667	;
JU51	7074.75545659	5.34519689824	;
JU52	7134.66947177	5.8142327482	;
JU53	7135.05997085	5.84727270233	;
JU54	7132.52436827	6.15522310218	;
JU55	7103.47315249	4.90109386574	;
JU56	7106.66061732	4.01089218428	;
JU57	7071.4528335	3.92469813957	;
JU58	7101.09865824	2.29502632966	;
JU59	7134.52802646	5.63459154876	;
JU60	7063.39643692	5.40962234571	;
JU61	7064.56876747	4.55871279082	;
JU62	7096.74430556	4.27324222222	;
JU63	7066.22659259	1.726372	;
JU64	7073.54287037	4.90962840278	;
JU65	7078.13403834	4.07942466503	;
JU66	7040.6328125	4.1453359375	;
JU67	7101.4947953	4.72853125176	;
JU68	7028.17404861	2.87789330556	;
JU69	7094.22716194	5.05435999228	;
JU70	7093.93179111	5.63011515689	;
JU71	7077.03641356	128.794331579	;
JU72	7073.93176618	4.51641804687	;
JU73	7086.06336806	3.289625	;
JU74	7103.64598727	3.98762460648	;
JU75	7082.37605135	5.59926817901	;
JU76	7133.63943538	2.17417989308	;
JU77	7093.6396807	5.39480130313	;
JU78	7047.50191244	4.54646196026	;
JU79	7073.02777778	0.937111111111	;
JU80	7089.10275289	2.75969944155	;
JU81	7072.3896424	4.39402928188	;
JU82	7060.3109553	4.40060467861	;
JU83	7074.41532665	4.37293490226	;
JU84	7118.77391975	6.31651234568	;
JU85	7085.20333333	5.79525814815	;
JU86	7144.49664034	2.29540092556	;
JU87	7116.68657031	3.07671503728	;
JU88	7079.28814751	5.06475798301	;
JU89	7058.06624945	7.26592186285	;
JU90	7037.436875	6.14515138889	;
JU91	7094.5125338	4.50206798648	;
JU92	7144.10481783	5.24911902501	;
JU93	7106.29070216	2.98067400549	;
JU94	7124.10065403	6.17359844209	;
JU95	7044.7467284	2.44798024691	;
JU96	7072.4087321	1.91874410494	;
JU97	7074.03313079	2.74897621528	;
JU98	7052.04581425	1.79468745113	;
JU99	7086.35609144	4.66408409722	;
JU100	7093.84108851	3.58751579861	;
JU101	7077.28111276	4.29412655093	;
JU102	7085.17634323	4.31343	;
JU103	7080.77278935	3.85078229167	;
JU104	7085.44213992	4.96568436214	;
JU105	7078.63349227	4.24949135424	;
JU106	7082.83478181	3.96561687028	;
JU107	7060.037201	4.16804411651	;
JU108	7093.63829861	3.11559247685	;
JU109	7036.79308715	4.04323992623	;
JU110	7086.16437992	4.78465871036	;
JU111	7119.25599392	7.4893298669	;
JU112	7133.62441575	3.42074910502	;
JU113	7053.5289973	5.00522992735	;
JU114	7048.04944362	4.19758411604	;
JU115	7125.37641155	5.28050419822	;
JU116	7102.3963328	3.48733674185	;
JU117	7129.16499151	4.45889609201	;
JU118	7120.71317057	4.85466767168	;
JU119	7097.67816821	4.14572465226	;
JU121	7056.7807159	4.80756341437	;
JU122	7133.64832988	6.63952819028	;
JU123	7064.18596065	4.81326144547	;
JU124	7055.29404468	2.22020300363	;
JU125	7125.21450617	4.41572037037	;
JU126	7070.31880232	3.02231457851	;
JU127	7054.11838624	2.9987473545	;
JU128	7077.28440429	5.30549060357	;
JU129	7138.78992815	1.88698744616	;
JU130	7078.75	5.6765	;
JU131	7128.39872272	6.1045843502	;
JU132	7156.35895955	6.12820025673	;
JU133	7056.79969136	4.1073308642	;
JU134	7103.04064885	5.41545784121	;
JU135	7044.66109692	5.30628592406	;
JU136	7161.37697238	7.02229914172	;
JU137	7066.15393036	5.80390371335	;
JU138	7057.26179813	4.82138535131	;
JU139	7067.84226401	4.95537016761	;
JU140	7155.10142269	6.60454376506	;
JU141	7098.50551547	3.30345005083	;
JU142	7117.83885674	2.62553914609	;
JU143	7135.89975566	5.84397235082	;
JU144	7121.77861003	4.63949557219	;
JU145	7077.2962963	4.16809876543	;
JU146	7072.76805556	3.29839166667	;
JU147	7052.16703063	4.22057704673	;
JU148	7060.85972079	4.27714183909	;
JU149	7093.8654321	4.69714238683	;
JU150	7102.71831276	4.40017187929	;
JU151	7062.4849	3.67377181711	;
JU152	7051.36449735	4.00939433862	;
JU153	7066.37311819	4.83501661512	;
JU154	7054.50272917	4.4135022568	;
JU155	7038.65965878	0.716229699931	;
JU156	7111.81019594	5.29267215377	;
JU157	7038.53155441	4.04048080476	;
JU158	7044.342851	4.17748896928	;
JU159	7109.11995106	4.52239760643	;
JU160	7104.08250148	3.24122336259	;
JU161	7068.50627778	5.9245686	;
JU162	7084.76840741	2.8325487037	;
JU163	7087.34989712	4.14181630658	;
JU164	7099.09176634	3.09877675914	;
JU165	7098.35590278	2.37451215278	;
JU166	7048.21580337	4.42436330669	;
JU167	7142.87520833	5.77756577932	;
JU168	7102.34400232	5.93553298021	;
JU169	7072.22119213	1.77150670139	;
JU170	7148.7875	5.411259375	;
JU171	7128.89305556	5.33669444444	;
JU172	7100.55921399	3.33836697046	;
JU173	7124.91782168	2.48386952313	;
JU174	7074.1799384	4.50974301209	;
JU175	7102.8996269	4.35934641296	;
JU176	7088.45042795	1.57277128915	;
JU177	7059.52269393	5.74406065535	;
JU178	7074.78597801	4.49021269676	;
JU179	7129.05885631	6.20111552641	;
JU180	7149.79341221	6.83568770233	;
JU181	7092.53851482	5.45101618598	;
JU182	7124.74760529	2.42447410278	;
JU183	7104.76634259	3.65077351852	;
JU184	7089.27172693	3.31045908967	;
JU185	7086.39134259	3.60202351852	;
JU186	7073.33665655	5.56870681636	;
JU187	7133.36681241	7.06129803669	;
JU188	7126.19353009	5.68284623843	;
JU189	7066.81324767	4.88741551051	;
JU190	7066.12048027	4.07604678048	;
JU191	7076.7662037	4.89218518519	;
JU192	7058.71278757	4.45861903605	;
JU193	7031.4062934	2.69425067274	;
JU194	7047.31065435	3.43364051305	;
JU195	7073.91846154	3.35787881162	;
JU196	7019.54086837	2.87328410063	;
JU197	7059.73555965	2.16441544384	;
JU198	7038.44212963	4.54020601852	;
JU199	7044.7188643	4.56998019005	;
JU200	7070.13359838	6.65128000394	;
JU201	7089.11386746	2.76849404762	;
JU202	7076.02363281	1.56189878472	;
JU203	7078.15699752	4.23657842793	;
JU204	7095.57369444	3.58049166667	;
JU205	7174.78068541	4.25777164334	;
JU206	7093.29498521	4.53458614568	;
JU207	7061.14901758	5.47281714216	;
JU208	7094.08811568	3.80566944626	;
JU209	7060.82088889	5.15789164444	;
JU210	7081.73002195	4.40646009792	;
JU211	7096.8703312	3.98086920909	;
JU212	7079.8811098	3.5441420436	;
JU213	7106.05166667	5.46835197531	;
JU214	7064.97296296	5.26396296296	;
JU215	7089.99223511	4.54489559613	;
JU216	7054.59319702	4.49115134002	;
JU217	7087.71734568	4.98031123457	;
JU218	7089.84949363	5.522046712	;
JU219	7113.29657118	5.10183463574	;
JU220	7064.12223278	4.19723659979	;
JU221	7064.28475226	3.68364526078	;
JU222	7054.0552561	3.89736894621	;
JU223	7083.3576374	5.64597816573	;
JU224	7055.73883102	4.65349411651	;
JU225	7098.14630354	3.43686373228	;
JU226	7084.69444444	0.0	;
JU227	7088.6137711	5.90433281767	;
JU228	7104.60665222	4.17645288493	;
JU229	7095.79928513	4.81089029806	;
JU230	7056.8607964	4.83135617143	;
JU231	7057.39781379	3.71674066358	;
JU232	7068.35448938	4.95607889391	;
JU233	7105.94556327	41.8896239798	;
JU234	7027.67912107	4.08093746255	;
JU235	7089.84147065	4.31214063776	;
JU236	7044.57816074	4.24215804579	;
JU237	7061.35627438	2.81651302111	;
JU238	7075.92181524	5.03915814789	;
JU239	7055.34567901	2.398	;
JU240	7144.24367413	4.27722638374	;
JU241	7076.77424679	4.77556739986	;
JU242	7109.68833591	3.96977046811	;
JU243	7139.76320914	5.31024438864	;
JU244	7079.53125	5.8833125	;
JU245	7058.29512659	3.83694103833	;
JU246	7064.13344119	3.58700806174	;
JU247	7075.59506867	4.40092264758	;
JU248	7120.44858631	5.22197619048	;
JU249	7130.61677732	7.6233184483	;
JU250	7046.17361111	4.02803703704	;
JU251	7096.40893056	3.15432875	;
JU252	7063.57048611	4.31909184028	;
JU253	7091.54942535	3.5170772419	;
JU254	7085.33756772	4.30729584071	;
JU255	7070.46945879	0.880670431134	;
JU256	7063.44048003	4.89739431327	;
JU257	7032.54305567	2.7003615619	;
JU258	7074.48474337	4.03037771451	;
JU259	7020.98225309	4.10342407407	;
JU260	7060.88339015	3.34544149983	;
JU261	7089.05622037	5.72154167407	;
JU262	7081.40085123	5.03991287562	;
JU263	7055.02759229	4.80034669545	;
JU264	7089.72377347	3.3236659195	;
JU265	7081.33876669	4.73785298365	;
JU266	7039.72160015	4.04866703904	;
JU267	7102.50244229	2.9374835153	;
JU268	7065.49465021	5.93628815158	;
JU269	7062.03031121	5.78106016375	;
JU270	7080.38960777	4.09798689558	;
JU271	7074.31044782	4.57686092019	;
JU272	7096.19675926	5.35340740741	;
JU273	7088.89915123	4.47868793724	;
JU274	7113.10416667	4.65576388889	;
JU275	7100.46355324	4.15065443673	;
JU276	7113.78069019	0.559937641723	;
JU277	7051.2150216	5.52563347531	;
JU278	7079.81759125	3.15049341114	;
JU279	7042.02030458	5.10161109012	;
JU280	7101.97186214	4.67334045782	;
JU281	7076.1987079	5.44602834336	;
JU282	7091.98584484	6.49899358771	;
JU283	7075.67334228	5.69537866003	;
JU284	7101.74352743	4.83236924676	;
JU285	7101.48298685	4.21422343718	;
JU286	7105.26994358	6.24759954789	;
JU287	7129.22742312	3.73227952324	;
JU288	7072.10406133	5.32846389791	;
JU289	7092.56746388	4.90025751714	;
JU290	7086.54658233	5.17052542156	;
JU291	7039.64714506	3.96203248457	;
JU292	7065.33852881	5.10875941872	;
JU293	7065.21714249	4.45074695216	;
JU294	7100.87933758	3.29464739282	;
JU295	7095.81397363	3.72582547703	;
JU296	7073.30092593	1.85577222222	;
JU297	7073.17035322	5.44675614476	;
JU298	7080.55265095	5.29687131848	;
JU299	7055.68522265	5.84447953623	;
JU300	7105.58444911	5.78712585146	;
JU301	7094.734375	3.1909375	;
JU302	7083.63714444	4.93412415556	;
JU303	7123.33008255	6.2875310465	;
JU304	7059.54342552	3.93701122525	;
JU305	7090.88832784	4.16158635417	;
JU306	7079.05027542	4.18253828854	;
JU307	7060.6067543	4.29586936914	;
JU308	7132.94184028	3.82155758102	;
JU309	7065.25128048	4.77366971089	;
JU310	7040.25253987	4.42771609311	;
JU311	7117.40161458	2.0656591956	;
JU312	7153.64793292	3.18479705272	;
JU313	7078.00617284	1.76528395062	;
JU314	7071.14444444	1.4727	;
JU315	7133.76666667	3.28466416667	;
JU316	7067.60880835	5.76306902488	;
JU317	7077.89674383	2.34279106481	;
JU318	7116.22916667	4.09385416667	;
JU319	7079.84920992	5.89950416422	;
JU320	7117.82398594	3.94524587338	;
JU321	7065.1590625	2.24169354167	;
JU322	7089.80018165	4.85409568116	;
JU323	7091.09549238	4.36783694155	;
JU324	7094.70613365	4.42081724863	;
JU325	7096.21762145	2.28977819938	;
JU326	7128.38100386	4.4950477338	;
JU327	7081.00360301	6.03176316204	;
JU328	7066.22659259	1.726372	;
JU329	7099.21497529	3.36665507108	;
JU330	7063.37953125	1.99052802083	;
JU331	7098.55459201	3.43535259028	;
JU332	7083.13541667	6.5998125	;
JU333	7111.35334619	4.34108050412	;
JU334	7106.47841736	1.82040837231	;
JU335	7093.49310834	3.29573108786	;
JU336	7088.38051731	2.88214082715	;
JU337	7047.12708308	5.77012282922	;
JU338	7079.40695357	4.33176521929	;
JU339	7100.65423007	5.61791261986	;
JU340	7109.11491065	4.94903480556	;
JU341	7116.17006173	4.57464012346	;
JU342	7077.03414896	4.93562675812	;
JU343	7059.29996385	5.53106932047	;
JU344	7086.06575521	3.54402447917	;
JU345	7085.11390743	4.17081332013	;
JU346	7107.37244028	4.81875244919	;
JU347	7132.63507456	2.76456753003	;
JU348	7164.82343535	1.54780620342	;
JU349	7096.96128924	4.6079511773	;
JU350	7093.76420075	3.02728621721	;
JU351	7111.25051179	2.88289527271	;
JU352	7096.11512628	3.16959221892	;
JU353	7087.92588685	3.98918051641	;
JU354	7095.36274499	3.81761869725	;
JU355	7089.70642336	5.29919552513	;
JU356	7106.89560728	4.61448547168	;
JU357	7091.55041841	3.59413510198	;
JU358	7086.96366049	2.62075972222	;
JU359	7075.42766782	6.51930287616	;
JU360	7089.02370666	4.06696036724	;
JU361	7116.55998392	2.5884201286	;
JU362	7049.4133464	4.63284913488	;
JU363	7073.29267939	6.36399828925	;
JU364	7058.50376327	7.80898950711	;
JU365	7102.9621875	5.541723	;
JU366	7092.30238715	6.89293035714	;
JU367	7088.38051731	2.88214082715	;
JU368	7095.75053102	3.56368396986	;
JU369	7117.51299748	5.31897429347	;
JU370	7077.66438706	2.41746943301	;
JU371	7043.66986883	6.01861805556	;
JU372	7084.21908092	4.40717784939	;
JU373	7077.27696952	4.0266424027	;
JU374	7080.31171445	3.98153599663	;
JU375	7116.2033982	4.2714709158	;
JU376	7060.9881037	5.04816716049	;
JU377	7131.57693436	2.33758354306	;
JU378	7105.47438152	4.17242406121	;
JU379	7114.25664185	27.2985148994	;
JU380	7102.97188327	7.79300190146	;
JU381	7098.29856397	6.22832424735	;
JU382	7040.25253987	4.42771609311	;
JU383	7068.79059534	3.32192988444	;
JU384	7056.88634983	2.78620329861	;
JU385	7087.51195197	5.98114823582	;
JU386	7080.94836706	4.90145010424	;
JU387	7120.39514074	4.01233263519	;
JU388	7085.10006451	2.84215106739	;
JU389	7087.00520833	2.88623958333	;
JU390	7101.5451749	3.82130129415	;
JU391	7070.05229039	4.89039352793	;
JU392	7084.08519805	4.50593130144	;
JU393	7102.39189937	3.95792121249	;
JU394	7099.18598573	3.90446137796	;
JU395	7049.72016909	4.48853340862	;
JU396	7094.27051826	3.93672345036	;
JU397	7105.63997128	4.36504671425	;
JU398	7109.11995106	4.52239760643	;
JU399	7094.0468484	3.27594266865	;
JU400	7104.95823331	4.24985858196	;
JU401	7041.26486883	5.79815132716	;
JU402	7054.97969004	4.63725200242	;
JU403	7082.45986235	5.1879031994	;
JU404	7141.65280624	5.2844547023	;
JU405	7026.38461111	3.34507644444	;
JU406	7115.45551183	3.22941043553	;
JU407	7078.71953998	5.02726455026	;
JU408	7122.49822248	3.13765751618	;
JU409	7101.99190538	3.40709071181	;
JU410	7096.85856056	3.63115121005	;
JU411	7070.42822535	4.07401284309	;
JU412	7087.36277373	5.85228376678	;
JU413	7022.71174492	2.80190248289	;
JU414	7065.92360225	1.94530281202	;
JU415	7108.72718549	4.4465533642	;
JU416	7131.1486541	4.90417242587	;
JU417	7120.58159313	2.00868064043	;
JU418	7123.31957639	4.49904502778	;
JU419	7128.89655878	3.46331615932	;
JU420	7075.60888889	3.84330222222	;
JU421	7114.76271758	3.37591046005	;
JU422	7116.72131435	3.33873474114	;
JU423	7076.75045274	3.13927322787	;
JU424	7102.23263107	4.90570517212	;
JU425	7090.00528152	4.8471311251	;
JU426	7094.29625732	4.54420449499	;
JU427	7088.79564894	4.3099975572	;
JU428	7081.42777778	3.27988888889	;
JU429	7024.72515708	3.70592410714	;
JU430	7098.21058348	4.01188674791	;
JU431	7103.28594615	3.82476462453	;
JU432	7099.91958085	4.6366312004	;
JU433	7105.27368233	2.89211765212	;
JU434	7087.52309444	2.97966550926	;
JU435	7058.60763889	3.31280709877	;
JU436	7020.0	4.022	;
JU437	7097.35621403	4.20351783333	;
JU438	7122.20833333	2.05975	;
JU439	7077.97592903	4.5071284585	;
JU440	7075.38279067	4.76827400178	;
JU441	7105.37761487	2.70923950656	;
JU442	7084.437875	3.82531583333	;
JU443	7070.32995481	3.42889016253	;
JU444	7052.51697531	5.87793209877	;
JU445	7092.59733333	3.43878177778	;
JU446	7064.5941019	4.69552830459	;
JU447	7060.72607053	3.78563890828	;
JU448	7122.11386775	2.65507207305	;
JU449	7091.17544039	1.66992677315	;
JU450	7101.61722222	5.70321453704	;
JU451	7087.04375926	4.00545190123	;
JU452	7088.91004808	4.17838288802	;
JU453	7076.48897249	6.66098046897	;
JU454	7100.00074439	3.36817597344	;
JU455	7077.81982033	5.98954022931	;
JU456	7064.32822803	4.58570481086	;
JU457	7057.02743034	4.27584310642	;
JU458	7115.7337963	5.24609753086	;
JU459	7092.46777778	3.02983962963	;
JU460	7054.92827896	3.44717669465	;
JU461	7151.37560824	6.53973910831	;
JU462	7085.57211902	1.3982245544	;
JU463	7110.56262056	4.88120463445	;
JU464	7093.91210938	4.45212760417	;
JU465	7067.12860391	5.05377024019	;
JU466	7138.16062243	2.97066724537	;
JU467	7114.60639429	6.01886508638	;
JU468	7084.87668704	4.39838296296	;
JU469	7079.82509541	1.85443780676	;
JU470	7154.28181217	4.37713994709	;
JU471	7080.67303241	2.54856365741	;
JU472	7077.08713786	4.69324354621	;
JU473	7083.00524048	6.29577222222	;
JU474	7111.43188367	38.9545784316	;
JU475	7119.08892599	4.28589280338	;
JU476	7031.61213628	4.38106711111	;
JU477	7085.5	5.27125	;
JU478	7084.47310116	4.58409577409	;
JU479	7068.24427989	5.41709091553	;
JU480	7064.64596889	4.74669036503	;
JU481	7072.86280533	4.39213411981	;
JU482	7087.91156101	3.89825708195	;
JU483	7064.2319394	5.18063246427	;
JU484	7056.96226014	2.34648871757	;
JU485	7061.12052865	3.39254451922	;
JU486	7073.12207247	5.14969834718	;
JU487	7090.25497969	3.46459442498	;
JU488	7064.64596889	4.74669036503	;
JU489	7080.16009707	4.30315691749	;
JU490	7053.41229113	3.00030066869	;
JU491	7120.88720891	2.75463776538	;
JU492	7122.3587963	2.04695601852	;
JU493	7095.85404989	4.35544690497	;
JU494	7106.79110468	5.60548627128	;
JU495	7089.6444494	4.76265446429	;
JU496	7118.67887547	31.2779194212	;
JU497	7065.20794051	5.15701422571	;
JU498	7108.9589815	2.67024338046	;
JU499	7079.02263766	3.7561988797	;
JU500	7080.26871121	4.82186197359	;
JU501	7035.1903015	2.64080288233	;
JU502	7089.28989418	6.5009578836	;
JU503	7053.19037201	3.92231175635	;
JU504	7070.31670941	3.30630609939	;
JU505	7068.23236993	4.80172218367	;
JU506	7090.38840312	4.54494067913	;
JU507	7051.23617221	3.51664653177	;
JU508	7058.45359147	3.98149685768	;
JU509	7096.97872561	4.5767964159	;
JU510	7078.13699157	3.49022196181	;
JU511	7101.36963983	4.03596788556	;
JU512	7091.95688836	2.28998294396	;
JU513	7114.5	4.41877777778	;
JU514	7099.41197824	3.95068782438	;
JU515	7098.47144255	1.88867966744	;
JU516	7096.4283071	6.04692773251	;
JU517	7032.67416667	6.15485666667	;
JU518	7128.46795575	4.26694257304	;
JU519	7063.14513889	6.56839020062	;
JU520	7130.89326534	5.40098035301	;
JU521	7096.02320405	3.53163853249	;
JU522	7118.71156184	3.81570756016	;
JU523	7096.13091167	59.1259114595	;
JU524	7045.46251196	4.2149808977	;
JU525	7075.09772262	4.03026352236	;
JU526	7064.58160373	2.03989862969	;
JU527	7092.48742981	5.67459635139	;
JU528	7074.08357928	6.7604776331	;
JU529	7073.15793529	4.32794422241	;
JU530	7127.3900463	6.94593865741	;
JU531	7077.18015424	1.44919467292	;
JU532	7066.2471082	5.1115264832	;
JU533	7063.7966368	5.82805981128	;
JU534	7075.4781684	7.08521241319	;
JU535	7116.1335841	4.75799344136	;
JU536	7076.12289503	3.48681404779	;
JU537	7059.19226009	2.39643116054	;
JU538	7138.13264275	4.37704489198	;
JU539	7052.4603588	5.17308564815	;
JU540	7088.9615162	2.0284068287	;
JU541	7128.45993732	4.39490405981	;
JU542	7064.75995455	5.11938439794	;
JU543	7124.07853101	4.08220642269	;
JU544	7139.28362974	4.19988093334	;
JU545	7124.07853101	4.08220642269	;
JU546	7141.52517639	4.38327548429	;
JU547	7082.64672963	5.31702796443	;
JU548	7063.60544966	3.56107911146	;
JU549	7049.19666667	5.63832361111	;
JU550	7094.41285496	5.36433171072	;
JU551	7110.94010046	2.29577255686	;
JU552	7073.0719184	0.252507647569	;
JU553	7060.44168489	3.95307752486	;
JU554	7060.44168489	3.95307752486	;
JU555	7099.95151749	5.05000102881	;
JU556	7072.46834603	4.36376350118	;
JU557	7055.63263567	3.04858224023	;
JU558	7055.63263567	3.04858224023	;
JU559	7087.9847346	5.90160127373	;
JU560	7052.49209105	2.92328472222	;
JU561	7119.12458848	4.92206912294	;
JU562	7109.61937157	3.89313679127	;
JU563	7098.4419004	4.00654144044	;
JU564	7069.71014109	4.59749542549	;
JU565	7087.54880787	2.92141076389	;
JU566	7157.93007435	5.43940713391	;
JU567	7073.95918858	2.86563038741	;
JU568	7133.72988546	2.72289865077	;
JU569	7065.51255343	4.98055045171	;
JU570	7063.73285239	2.07646424769	;
JU571	7150.71286448	4.51946167644	;
JU572	7123.4469372	3.75426861895	;
JU573	7133.87630458	3.6754641485	;
JU574	7100.90344327	1.96159729887	;
JU575	7121.78308333	4.78266316049	;
JU576	7095.21417985	4.92866380173	;
JU577	7099.92894638	128.553051666	;
JU578	7072.11201775	3.6342445409	;
JU579	7062.51802705	5.08063527854	;
JU580	7123.38205502	4.73609048216	;
JU581	7086.95256944	3.00314768519	;
JU582	7063.74814902	4.02556236376	;
JU583	7068.80339817	4.71619986511	;
JU584	7103.12662937	3.06659998088	;
JU585	7080.71843757	4.59554855088	;
JU586	7050.14654778	6.60833516232	;
JU587	7091.1004492	2.21488116302	;
JU588	7091.80936227	3.73092589352	;
JU589	7114.85272859	4.82526122742	;
JU590	7062.88049769	4.03962680845	;
JU591	7031.36499259	6.30257842963	;
JU592	7087.89111248	6.58102854135	;
JU593	7067.82501715	7.24208347051	;
JU594	7062.3018107	5.62882798354	;
JU595	7047.6739418	2.9987473545	;
JU596	7121.27004163	5.73381307549	;
JU597	7077.36628652	3.94726715535	;
JU598	7126.96711613	4.3748951196	;
JU599	7175.73148148	2.69979938272	;
JU600	7101.81546875	5.71859108333	;
JU601	7094.54396989	3.34247550565	;
JU602	7097.29007181	3.81544936616	;
JU603	7050.86579926	2.57102628613	;
JU604	7068.80900821	4.21504223152	;
JU605	7065.27510073	4.78538125525	;
JU606	7082.15145063	5.32062207957	;
JU607	7074.51938854	4.17868932092	;
JU608	7044.43051281	4.32822261963	;
JU609	7096.5599703	4.07798503785	;
JU610	7108.52638686	4.46526239348	;
JU611	7030.794375	5.99516583333	;
JU612	7106.53552366	4.32978103292	;
JU613	7075.50848951	4.15849053446	;
JU614	7087.73591081	3.91285068452	;
JU615	7059.83846571	2.12435527344	;
JU616	7054.97599252	4.7777540204	;
JU617	7130.14520508	1.78751609109	;
JU618	7078.59446766	5.49651790592	;
JU619	7074.59399698	3.97601820921	;
JU620	7079.54247524	3.57001549318	;
JU621	7066.46657276	5.72363471847	;
JU622	7103.95460295	4.08709396635	;
JU623	7083.21244856	3.80713374486	;
JU624	7125.48623971	6.4946718107	;
JU625	7060.87674814	3.10192233272	;
JU626	7080.31913355	4.71161845262	;
JU627	7102.39357388	3.54401058338	;
JU628	7068.17312693	3.37117400849	;
JU629	7074.58579104	4.92614907986	;
JU630	7052.95713645	2.50711088536	;
JU631	7071.4528335	3.92469813957	;
JU632	7103.47315249	4.90109386574	;
JU633	7065.26101131	5.20429608805	;
JU634	7093.40871914	4.36744212791	;
JU635	7100.81738194	2.93081020833	;
JU636	7065.76524306	3.61712916667	;
JU637	7067.24507357	5.79233110196	;
JU638	7074.75545659	5.34519689824	;
JU639	7121.12997188	4.75053942557	;
JU640	7061.38386001	3.26409080603	;
JU641	7018.19074074	5.24892037037	;
JU642	7097.37084057	4.61384932002	;
JU643	7099.95833333	2.26333333333	;
JU644	7101.5625	5.71202083333	;
JU645	7044.54513889	3.52339351852	;
JU646	7104.25281081	2.89864788597	;
JU647	7130.49039372	4.55395619316	;
JU648	7084.75551667	5.48585763333	;
JU649	7094.09259259	4.26576719907	;
JU650	7030.98671837	3.92043973199	;
JU651	7106.47438845	3.73804996528	;
JU652	7081.69965278	6.50785416667	;
JU653	7034.29431568	3.75994200143	;
JU654	7069.00025892	4.70946344828	;
JU655	7058.45211566	2.49470711737	;
JU656	7103.94654159	3.43496145016	;
JU657	7123.44149794	4.21136464288	;
JU658	7077.79271899	2.63287442681	;
JU659	7095.60527778	3.84269865398	;
JU660	7147.74301144	3.60972263377	;
JU661	7155.06808642	5.93813435185	;
JU662	7076.45932613	5.97944900206	;
JU663	7122.59257973	3.63555774498	;
JU664	7085.4485136	3.80789482948	;
JU665	7062.35277521	4.86410188786	;
JU666	7047.3937037	1.4789212963	;
JU667	7063.54218536	6.6199523834	;
JU668	7150.74723669	6.14071082176	;
JU669	7041.68506309	2.92755456955	;
JU670	7119.58667679	5.08737511603	;
JU671	7100.82261213	3.12987670603	;
JU672	7055.8431602	4.30374038087	;
JU673	7125.7960696	5.49823495756	;
JU674	7088.80354513	5.373427891	;
JU675	7056.49440272	5.33853093393	;
JU676	7077.19132736	2.61635605545	;
JU677	7101.64336781	4.27035849489	;
JU678	7050.47942387	4.04516872428	;
JU679	7064.91685597	1.60166677984	;
JU680	7102.93458638	4.07074918077	;
JU681	7102.99682453	4.65657563422	;
JU682	7116.36751027	4.7500479867	;
JU683	7117.69673834	4.62163482688	;
JU684	7105.65588132	4.30013127141	;
JU685	7074.13372134	3.5714822716	;
JU686	7107.85532407	6.57690509259	;
JU687	7081.9570487	4.76999120854	;
JU688	7016.95502818	3.57226370357	;
JU689	7051.87003601	4.0916127572	;
JU690	7101.81336651	3.36941273492	;
JU691	7074.65798611	1.76775	;
JU692	7085.46052588	3.41187770371	;
JU693	7112.33302931	4.61752952793	;
JU694	7116.01204127	2.15751091164	;
JU695	7099.99582977	4.15160466856	;
JU696	7076.16346111	3.85485534174	;
JU697	7105.03650231	6.12893935745	;
JU698	7150.67958333	3.44050666667	;
JU699	7058.44506559	2.53824473428	;
JU700	7097.87558466	4.23135262963	;
JU701	7090.47601595	4.27576335991	;
JU702	7081.96113269	3.26851641806	;
JU703	7092.77238493	4.92775374666	;
JU704	7064.76353116	2.62796404885	;
JU705	7151.54497376	3.77449437855	;
JU706	7101.05750474	7.50451159674	;
JU707	7061.05847273	4.47538643753	;
JU708	7144.58333333	7.27364351852	;
JU709	7026.81640625	3.85666796875	;
JU710	7021.34313889	3.17481488889	;
JU711	7043.80222404	3.0907109534	;
JU712	7112.97931778	4.85014491011	;
JU713	7120.05642638	4.50584687886	;
JU714	7082.53828598	4.50010291806	;
JU715	7097.3563739	3.29829485009	;
JU716	7122.02335512	4.17656017064	;
JU717	7082.20010561	6.04212930122	;
JU718	7156.84495186	6.28779267393	;
JU719	7041.60173611	3.18587638889	;
JU720	7059.54342552	3.93701122525	;
JU721	7069.45159369	3.8791122741	;
JU722	7067.18908059	6.23346661416	;
JU723	7059.06668082	5.63561362776	;
JU724	7092.24672377	4.912884211	;
JU725	7078.29615557	3.69565811696	;
JU726	7073.92838841	4.77719092535	;
JU727	7070.81214071	2.94275432567	;
JU728	7146.09303431	5.33828638404	;
JU729	7089.0504088	6.55082379352	;
JU730	7022.25925926	1.48962962963	;
JU731	7101.8032979	5.16433729076	;
JU732	7113.08096104	15.3484716501	;
JU733	7113.20270833	2.37213541667	;
JU734	7073.62433902	5.67136133513	;
JU735	7070.46727199	4.37224009516	;
JU736	7061.29416152	5.44531916152	;
JU737	7109.33473958	4.44110416667	;
JU738	7104.00951244	3.7343535735	;
JU739	7067.68853694	3.9740773144	;
JU740	7075.2632581	4.95356456019	;
JU741	7111.00077675	17.3590539609	;
JU742	7083.01833333	3.66549012346	;
JU743	7031.21634139	3.02745187883	;
JU744	7167.64935664	6.44116324689	;
JU745	7067.68853694	3.9740773144	;
JU746	7110.38566872	4.15192397044	;
JU747	7033.87013269	4.6183218502	;
JU748	7115.13009259	5.91749537037	;
JU749	7072.24806617	5.63417422197	;
JU750	7105.63695855	1.49481037681	;
JU751	7076.92269175	6.37775698121	;
JU752	7092.05342882	6.17293585069	;
JU753	7063.03343535	3.20760388184	;
JU754	7063.84270366	5.41579821225	;
JU755	7096.85729145	6.07112262946	;
JU756	7070.91878956	4.74411887884	;
JU757	7064.33968505	5.09915266482	;
JU758	7099.60064688	6.00332780483	;
JU759	7056.15121292	2.82993095842	;
JU760	7064.57155307	5.04772484987	;
JU761	7126.65284115	5.50961917695	;
JU762	7091.15873682	5.44586206252	;
JU763	7102.13074754	2.54577665363	;
JU764	7043.42444444	2.64743486111	;
JU765	7116.72131435	3.33873474114	;
JU766	7101.56839815	6.68768478839	;
JU767	7157.49140947	6.18450679012	;
JU768	7156.35895955	6.12820025673	;
JU769	7057.97532113	4.13744104207	;
JU770	7082.75319207	3.64084869134	;
JU771	7101.3640966	3.98594354959	;
JU772	7104.24124759	4.380199363	;
JU773	7056.18432065	5.30611750199	;
JU774	7067.75308928	4.82025090242	;
JU775	7133.31190486	4.82039375868	;
JU776	7122.69007491	6.459805948	;
JU777	7128.59849537	4.74755949074	;
JU778	7056.12425002	5.2946299316	;
JU779	7130.09895074	7.29265961812	;
JU780	7094.34087939	4.8203406029	;
JU781	7092.673345	3.40760451525	;
JU782	7059.92382746	3.96342539973	;
JU783	7054.04855242	1.48694074762	;
JU784	7063.79939584	4.47882715088	;
JU785	7065.70825098	4.15353069827	;
JU786	7089.34496309	4.11057267258	;
JU787	7095.60942688	4.5953214699	;
JU788	7073.4059741	5.00949837124	;
JU789	7099.34943006	4.99469725982	;
JU790	7095.27861208	4.3740527392	;
JU791	7098.84048388	3.39231199424	;
JU792	7081.94622415	6.3798099429	;
JU793	7078.41379415	5.36420259809	;
JU794	7107.29442329	65.8228531744	;
JU795	7141.92784851	6.36722312886	;
JU796	7087.95245242	4.26366523626	;
JU797	7136.40569019	0.559937641723	;
JU798	7057.8533005	3.85373551174	;
JU799	7083.25950114	4.39406476817	;
JU800	7073.4515871	3.45368118699	;
JU801	7066.59925199	5.72102626085	;
JU802	7100.4039056	3.52074964386	;
JU803	7099.92894638	128.553051666	;
JU804	7032.08354507	3.50657589177	;
JU805	7063.45312647	3.31491318107	;
JU806	7074.13372134	3.5714822716	;
JU807	7077.19126157	1.45574537037	;
JU808	7090.16922164	3.85859597222	;
JU809	7167.29861622	5.79277831234	;
JU810	7071.15439091	2.93548663194	;
JU811	7060.42978379	3.27994883873	;
JU812	7137.19791667	6.8445	;
JU813	7105.42615879	4.49173393115	;
JU814	7083.74633648	2.77168290895	;
JU815	7092.24588477	3.75510617284	;
JU816	7130.66418876	2.46529716172	;
JU817	7062.40972222	1.16641296296	;
JU818	7102.63360822	1.46362760417	;
JU819	7086.45776428	4.50463734821	;
JU820	7030.27777778	1.8837037037	;
JU821	7121.22405751	2.75552227431	;
JU822	7109.32173297	5.45449045142	;
JU823	7102.5919728	5.77578839894	;
JU824	7082.97074331	4.656010646	;
JU825	7083.80148148	3.30105185185	;
JU826	7114.84218077	4.93384417111	;
JU827	7125.1365014	5.49504960726	;
JU828	7098.19034295	3.69751016128	;
JU829	7071.14279514	3.78430434028	;
JU830	7090.27322917	2.7556	;
JU831	7102.72596257	3.06118888021	;
JU832	7132.0605751	5.30102824074	;
JU833	7075.82319046	3.85319571759	;
JU834	7096.8676249	4.48444474794	;
JU835	7054.16397268	2.32849179184	;
JU836	7071.20021758	3.0494431227	;
JU837	7081.96786705	3.35393885802	;
JU838	7072.98243885	2.4055498341	;
JU839	7064.11593945	5.77993682679	;
JU840	7123.89477778	5.94278611111	;
JU841	7095.98422391	8.34797504225	;
JU842	7106.82482066	4.51540855432	;
JU843	7124.3687585	5.17648321563	;
JU844	7092.22374784	6.09749546736	;
JU845	7150.69304591	1.66230425347	;
JU846	7018.24794827	3.2227739021	;