[TITLE]
Generated synthetic network;

[JUNCTIONS]
;ID	Elev	Demand	Pattern
JU1	7118.26743827	2.01661990741	;
JU2	7084.00701746	5.16901239683	;
JU3	7062.06061684	4.84541513404	;
JU4	7121.66916667	2.90978661111	;
JU5	7051.16666667	4.75733333333	;
JU6	7056.81481481	5.54713580247	;
JU7	7037.50462963	6.21118518519	;
JU8	7064.63000859	6.28750696967	;
JU9	7100.30940234	6.0207229811	;
JU10	7102.19613244	5.76616076351	;
JU11	7114.31059133	4.70313577081	;
JU12	7046.708125	6.8099628858	;
JU13	7026.03616898	2.12456983025	;
JU14	7099.86197595	2.58174319059	;
JU15	7074.01292214	4.52318030671	;
JU16	7084.50540059	4.65511349063	;
JU17	7052.12559276	5.62246651786	;
JU18	7032.89758333	3.36354524074	;
JU19	7069.83391525	4.55526816744	;
JU20	7055.82919527	5.34988658069	;
JU21	7102.27847222	2.38924444444	;
JU22	7133.46080617	4.6902768037	;
JU23	7086.70953901	2.54524147496	;
JU24	7102.15727674	3.46813694205	;
JU26	7083.25780857	2.92387142487	;
JU27	7074.59262637	4.39237706447	;
JU28	7085.58293347	4.58306749464	;
JU29	7092.93507062	4.41680944559	;
JU30	7092.6357197	3.45695810966	;
JU31	7102.15410581	4.3090752093	;
JU32	7098.31020727	3.88548628534	;
JU33	7103.78047516	4.12787800199	;
JU34	7097.63365393	5.06387003394	;
JU35	7095.05085764	4.74952223148	;
JU36	7096.38306096	4.64632885392	;
JU37	7091.60696686	4.30068363723	;
JU38	7080.95344707	2.50472133584	;
JU39	7107.06972083	3.72900535309	;
JU40	7091.47966049	3.26505467078	;
JU41	7100.09773148	3.76526472222	;
JU42	7113.074123	3.25255942545	;
JU43	7108.17365625	2.24941769618	;
JU44	7060.08250694	5.86150138889	;
JU45	7064.22999344	3.49695990412	;
JU46	7118.71556713	6.37527662037	;
JU47	7127.71547714	3.52876190776	;
JU48	7064.28821833	3.62256663695	;
JU49	7078.61110331	3.0444865281	;
JU50	7135.35393305	5.87792426617	;
JU51	7072.59613957	3.90139307727	;
JU52	7112.41861868	3.98546439088	;
JU53	7106.2834053	2.99083118585	;
JU54	7094.87205485	3.52011218522	;
JU55	7111.20718056	3.30587874074	;
JU56	7086.55513445	5.10611276615	;
JU57	7086.12017981	4.35897557074	;
JU58	7134.38078763	4.12160008267	;
JU59	7092.37130049	3.56835316918	;
JU60	7107.7040902	4.12170945337	;
JU61	7115.01697531	1.60058333333	;
JU62	7054.75327932	4.54181712963	;
JU63	7092.645729	4.37723226726	;
JU64	7105.71611128	4.37994081543	;
JU65	7081.7375	4.81496111111	;
JU66	7029.9262635	4.8684849537	;
JU67	7131.89255401	5.07397096836	;
JU68	7096.19624563	4.10110286561	;
JU69	7070.8142746	5.43505402845	;
JU70	7082.53008402	4.00701491055	;
JU71	7067.11147142	4.36693531928	;
JU72	7117.43986907	3.78824858579	;
JU73	7126.85678547	27.4448141721	;
JU74	7081.85	2.06810731293	;
JU75	7082.25348016	3.63768397619	;
JU76	7050.66701458	4.07902337917	;
JU77	7106.46932989	2.63038602819	;
JU78	7047.33170042	5.68752638503	;
JU79	7110.95165721	5.34961936304	;
JU80	7024.6209973	1.78798675412	;
JU81	7066.59894556	2.86042654519	;
JU82	7139.79242798	0.757712098765	;
JU83	7071.48812963	2.78818851852	;
JU84	7097.57481481	0.48784	;
JU85	7160.43851852	0.460539259259	;
JU86	7047.49766429	4.32858470293	;
JU87	7101.14140263	4.06932690731	;
JU88	7048.21656379	6.16384423868	;
JU89	7080.7456205	5.25396800026	;
JU90	7054.82929474	2.68463243463	;
JU91	7092.85520361	2.8626305427	;
JU92	7059.93856824	2.65293919017	;
JU93	7042.96430414	3.34066721751	;
JU94	7072.75708931	2.64190294817	;
JU95	7074.09761111	3.94104797222	;
JU96	7043.94677605	2.01443891206	;
JU97	7063.37199912	1.66146552734	;
JU98	7132.93074062	2.34135391105	;
JU99	7080.24523102	5.61805208333	;
JU100	7077.69077031	2.8750411104	;
JU101	7078.40151632	4.85544682173	;
JU102	7056.71269365	2.83390079793	;
JU103	7082.830239	1.06282025695	;
JU104	7074.3	0.4022	;
JU105	7069.65601852	2.36629814815	;
JU106	7049.0143151	3.43614478993	;
JU107	7109.91902485	4.0028923025	;
JU108	7140.44345988	2.88182804012	;
JU109	7096.54223439	3.69199817591	;
JU110	7139.11943506	3.89894131687	;
JU111	7038.34987783	2.63431858282	;
JU112	7128.836875	5.73065833333	;
JU113	7086.31677714	2.52814797381	;
JU114	7083.64029707	5.08440023148	;
JU115	7067.23617798	2.3060087963	;
JU116	7101.14291838	3.38270404664	;
JU117	7099.28128691	4.99908824987	;
JU118	7085.48731481	2.91878125	;
JU119	7088.78410253	4.21577385026	;
JU120	7149.92497303	5.48152819577	;
JU121	7065.46593364	3.59838527778	;
JU122	7077.39168881	1.18563157579	;
JU123	7080.02961373	4.54764365937	;
JU124	7089.63883601	4.33043645028	;
JU125	7074.41327884	4.63925991223	;
JU126	7072.05604745	4.07948016204	;
JU127	7108.93766623	5.69260169763	;
JU128	7158.53190104	6.71976475694	;
JU129	7107.7567552	3.73697502997	;
JU130	7092.90080919	4.4139288979	;
JU131	7096.53658519	3.41889403745	;
JU132	7104.41744572	5.3203460552	;
JU133	7098.05570527	3.57206118405	;
JU134	7081.35578089	2.76137574555	;
JU135	7081.76159582	2.27410468051	;
JU136	7083.07592425	2.53236521421	;
JU137	7108.29138302	3.65545351799	;
JU138	7131.471875	3.486071875	;
JU139	7091.21404915	4.09749514439	;
JU140	7118.51353096	5.61508305093	;
JU141	7079.9146969	3.63427807702	;
JU142	7110.40696952	3.28656855324	;
JU143	7064.22999344	3.49695990412	;
JU144	7101.38471861	4.26189213204	;
JU145	7064.09218777	4.75451263908	;
JU146	7095.60014991	4.40610954733	;
JU147	7088.94582134	2.85995559156	;
JU148	7128.71299371	3.90672570312	;
JU149	7125.60627042	4.14171596571	;
JU150	7109.13412994	4.69364486168	;
JU152	7122.47856653	3.82995186385	;
JU153	7085.22851094	3.80499182639	;
JU154	7126.90590149	5.03069417711	;
JU155	7062.86403756	2.15930520685	;
JU156	7132.7964784	3.79361724177	;
JU157	7077.1627512	3.0963311757	;
JU158	7057.96502229	2.51640770748	;
JU159	7103.20875455	2.71414541981	;
JU160	7049.34916336	1.65189009704	;
JU161	7087.67755825	4.46514165554	;
JU162	7066.93440201	2.61454398148	;
JU163	7118.65984899	1.40020306437	;
JU164	7134.29193848	4.53102437284	;
JU165	7103.59775082	2.73587648023	;
JU166	7081.09083516	3.85491337475	;
JU167	7062.92951787	2.9410975589	;
JU168	7144.73575556	5.36042421154	;
JU169	7083.64436632	4.31922774563	;
JU170	7129.80750491	68.878094422	;
JU171	7099.58462195	4.55577851097	;
JU172	7104.23576389	2.45997951389	;
JU173	7065.81514986	2.80268032892	;
JU174	7038.89132516	4.88579621056	;
JU175	7095.11231674	3.97940710745	;
JU176	7097.47349971	3.5289055027	;
JU177	7126.03407475	5.65663801639	;
JU178	7108.84970872	4.36805729938	;
JU179	7111.95346869	4.72909311696	;
JU180	7091.31452944	3.49604942548	;
JU181	7110.56603899	2.54812418253	;
JU182	7100.87549853	3.96787242348	;
JU183	7051.37628601	1.46806841564	;
JU184	7087.01210224	4.05178460688	;
JU185	7093.29418507	2.98085442184	;
JU186	7100.6455144	3.3986400823	;
JU187	7094.64193508	4.53012887591	;
JU188	7057.3744856	2.92701707819	;
JU189	7095.35683132	2.66851149668	;
JU190	7048.40231476	3.85897010035	;
JU191	7069.62295442	5.60906060154	;
JU192	7062.60416667	3.16025291667	;
JU193	7077.29814959	2.94746031539	;
JU194	7058.86498843	5.23435740741	;
JU195	7123.4140625	2.89814479167	;
JU196	7169.09492723	2.88776941058	;
JU197	7118.80079843	5.21566798965	;
JU198	7149.55581597	5.73647023438	;
JU199	7147.85952284	5.102832288	;
JU200	7083.5157317	3.197214307	;
JU201	7062.72215828	3.53969727141	;
JU202	7164.95	6.76960947917	;
JU203	7090.83337716	2.9207662062	;
JU204	7078.48671364	2.2305600131	;
JU205	7076.83009144	2.78836109325	;
JU206	7082.44273148	2.83851789021	;
JU207	7136.14588156	2.40913859954	;
JU208	7092.93749849	2.66111790658	;
JU209	7086.32263875	2.50612494782	;
JU210	7048.92772179	3.42725855035	;
JU211	7095.78494286	4.63105860622	;
JU212	7120.30321758	3.6173658895	;
JU213	7060.069012	2.34308036348	;
JU214	7103.56068653	5.18300196611	;
JU215	7090.28898688	2.7682458067	;
JU216	7168.35719329	1.98056979167	;
JU217	7071.97309369	4.13669882367	;
JU218	7140.67201823	5.67290755208	;
JU219	7110.31004115	5.8356600823	;
JU220	7045.33811568	4.61429679141	;
JU221	7115.57083333	0.9995775	;
JU222	7136.96240476	4.21032847865	;
JU223	7098.79420878	5.03909725568	;
JU224	7050.22450167	4.6389811304	;
JU225	7071.78002409	2.86029802348	;
JU226	7126.68366031	3.78913767032	;
JU227	7071.81597222	4.36858024691	;
JU228	7087.77634048	3.36297000439	;
JU229	7088.98084762	4.61088107469	;
JU230	7103.85232113	4.04765816184	;
JU231	7107.0508942	4.50567930471	;
JU232	7093.58648958	3.86426097222	;
JU233	7080.98878597	4.95270738523	;
JU234	7070.94883891	3.57009708429	;
JU235	7159.85677083	6.65314583333	;
JU236	7056.95938671	1.9979985086	;
JU237	7111.03628438	3.20380896219	;
JU238	7113.26062624	4.34111048141	;
JU239	7153.72349537	5.50738240741	;
JU240	7089.91456163	3.57914105903	;
JU241	7102.19613244	5.76616076351	;
JU242	7077.47427984	2.87790843621	;
JU243	7097.71411511	1.73207946246	;
JU244	7096.14780049	2.70677894097	;
JU245	7066.11088214	2.2757436106	;
JU246	7102.59613537	2.31079512928	;
JU247	7067.19918056	5.59860277778	;
JU248	7079.19601723	4.74529395576	;
JU249	7015.86555703	6.18445208701	;
JU250	7051.83201035	3.92297984375	;
JU251	7124.91087963	4.19578472222	;
JU252	7118.26960889	3.64468365644	;
JU253	7092.40052083	3.65992708333	;
JU254	7100.27481096	3.52682767168	;
JU255	7037.98958333	3.57396527778	;
JU256	7038.70106926	4.01427826325	;
JU257	7110.32157407	3.40394197531	;
JU258	7084.81752387	3.76248039641	;
JU259	7084.37465422	3.70206158854	;
JU260	7064.38191952	3.86058987359	;
JU261	7058.896267	3.85735004021	;
JU262	7095.41584239	3.86758653979	;
JU263	7129.43815755	5.07788936393	;
JU264	7121.19037829	4.38198025234	;
JU265	7149.49129666	5.76100971159	;
JU266	7096.40685014	0.0223444444444	;
JU267	7079.5584987	3.61794759693	;
JU268	7077.93111833	3.37656515475	;
JU269	7157.43402778	2.23461111111	;
JU270	7079.27490725	4.73489432002	;
JU272	7102.96620252	4.38034572497	;
JU273	7092.67834392	3.56935195062	;
JU274	7109.40356418	4.09131732594	;
JU275	7051.77437066	4.06802864583	;
JU276	7092.57739685	4.6192358592	;
JU277	7127.39015491	2.09705901245	;
JU278	7069.33350694	2.49116695602	;
JU279	7168.35719329	1.98056979167	;
JU280	7072.58254887	2.09018910751	;
JU281	7085.87170345	3.45316007459	;
JU282	7075.11783395	1.63231977198	;
JU283	7118.25725603	5.79904916029	;
JU284	7135.50918692	3.65312905093	;
JU285	7070.86310565	4.87457993317	;
JU286	7115.07338021	5.47571346354	;
JU287	7130.32550357	40.2182841829	;
JU288	7053.28062963	2.35217784675	;
JU289	7079.37792813	5.41610857704	;
JU290	7072.22692419	3.87249947917	;
JU291	7082.57156684	2.99211439525	;
JU292	7066.22599787	2.67168473381	;
JU293	7131.87847222	3.65150694444	;
JU294	7141.51041667	3.25133873457	;
JU295	7107.39468654	4.39229878244	;
JU296	7116.26990119	5.66977430105	;
JU297	7112.85279422	4.77816480794	;
JU298	7134.40833826	5.1612191133	;
JU299	7092.08784869	5.36341753049	;
JU300	7088.75093773	5.03614990096	;
JU301	7098.66358253	3.9723897146	;
JU302	7075.36639619	3.89366568413	;
JU303	7015.86555703	6.18445208701	;
JU304	7076.96158838	6.09541091773	;
JU305	7098.47252173	5.78828105819	;
JU306	7114.46486111	1.50595319444	;
JU307	7115.90062546	3.7697995074	;
JU308	7091.35021687	3.60319646917	;
JU309	7113.21616319	4.44716392088	;
JU310	7106.61953441	4.3664727176	;
JU311	7096.60182913	2.65482283484	;
JU312	7123.14125331	4.19530045761	;
JU313	7110.44498892	2.77772953972	;
JU314	7116.26104624	2.97272677601	;
JU315	7091.23499776	3.11237050255	;
JU316	7107.55106305	3.5245921649	;
JU317	7118.01683738	5.63249632812	;
JU318	7089.86534494	4.64769207189	;
JU319	7071.37990746	2.67576613583	;
JU320	7149.61000429	4.06533033066	;
JU321	7127.71547714	3.52876190776	;
JU322	7172.59546425	7.12776038938	;
JU323	7167.60983539	6.7126126679	;
JU324	7109.43235168	3.46500715125	;
JU325	7134.40833826	5.1612191133	;
JU326	7112.85279422	4.77816480794	;
JU327	7067.63003655	3.43639725437	;
JU328	7065.21388889	0.551535185185	;
JU329	7128.05212302	5.11268550617	;
JU330	7158.12772685	7.57021348148	;
JU331	7045.30648148	3.70493333333	;
JU332	7150.93595786	2.03075054227	;
JU333	7050.00130611	3.6229402587	;
JU334	7127.37868827	3.96542819444	;
JU335	7085.33697917	4.287690625	;
JU336	7075.07619122	3.37146370412	;
JU337	7120.32667091	4.32277238259	;
JU338	7082.46484568	2.88253679012	;
JU339	7053.73214832	3.18881167835	;
JU340	7110.42971949	4.45780258133	;
JU341	7061.67543781	3.67041929355	;
JU342	7083.01368047	4.17405487558	;
JU343	7086.35416379	3.9210626294	;
JU344	7129.76787359	3.07885120251	;
JU345	7106.09803241	3.24734027778	;
JU346	7031.42795139	4.06257083333	;
JU347	7126.19380607	1.9497441358	;
JU348	7063.45595428	3.56224479167	;
JU349	7045.22734375	2.978734375	;
JU350	7025.36336693	3.67131271649	;
JU351	7077.87845305	3.85726469184	;
JU352	7111.34896339	5.90927358424	;
JU353	7058.38828125	2.29041145833	;
JU354	7106.61918229	5.99095743056	;
JU355	7076.95218247	4.44344135299	;
JU356	7043.69332575	1.75246136473	;
JU357	7048.70853675	2.47895424627	;
JU358	7111.85113852	2.01668536844	;
JU359	7090.35983524	3.52008716046	;
JU360	7136.46614583	2.61376909722	;
JU361	7115.04508885	2.90863384398	;
JU362	7048.3474537	4.94461055556	;
JU363	7093.76625819	3.86050610841	;
JU364	7123.2417284	2.54857066667	;
JU365	7079.86591946	2.47070403762	;
JU366	7094.13315967	3.75521430587	;
JU367	7080.47088609	4.52132236798	;
JU368	7049.88637765	1.63604955922	;
JU369	7092.85331686	2.3767451148	;
JU370	7077.90788277	0.910907324735	;
JU371	7090.72052217	1.79972521333	;
JU372	7116.32492243	1.73872916942	;
JU373	7125.22765219	1.34942100832	;
JU374	7057.83424272	3.07266005291	;
JU375	7104.62232083	2.46606219957	;
JU376	7085.2868843	4.38428273857	;
JU377	7090.42109343	3.49174264725	;
JU378	7147.29467436	5.3518842238	;
JU379	6998.96296296	2.03040740741	;
JU380	7105.27514815	6.08800953704	;
JU381	7096.87277778	5.77928148148	;
JU382	7020.74099794	2.01751183128	;
JU383	7078.87526235	3.42790388975	;
JU384	7067.50839522	2.22326381655	;
JU385	7121.8762623	4.21780523968	;
JU386	7058.48658438	4.44451011574	;
JU387	7047.18576392	3.48445263853	;
JU388	7090.25670989	2.69583935257	;
JU389	7129.81931312	5.90838819589	;
JU390	7088.24524653	2.51514493599	;
JU391	7077.37388117	3.09978376543	;
JU392	7123.13746528	5.38036847222	;
JU393	7087.96311728	6.01867432099	;
JU394	7065.75236772	1.50942394227	;
JU395	7128.62728844	3.86996726185	;
JU396	7145.82968426	5.60764986296	;
JU397	7035.34503086	1.7287971649	;
JU398	7128.99947045	6.28788741101	;
JU399	7154.46378739	6.00802714014	;
JU400	7129.04691952	6.02810835648	;
JU401	7108.23034059	5.49461165482	;
JU402	7116.8314546	3.05856648262	;
JU403	7104.32155669	2.62724236045	;
JU404	7072.15381607	2.94219767941	;
JU405	7092.35315201	0.141896759259	;
JU406	7092.75138889	3.67867673611	;
JU407	7096.15436263	4.71115569273	;
JU408	7147.59961806	5.05027324074	;
JU409	7128.68166667	5.68144222222	;
JU410	7025.81201775	2.4116244856	;
JU411	7121.13510877	3.89272621634	;
JU412	7104.44926541	4.3632596101	;
JU413	7110.8377364	5.11705991802	;
JU414	7096.97201389	2.64433421296	;
JU415	7104.14935906	5.03158482223	;
JU416	7072.05604745	4.07948016204	;
JU417	7158.50262097	7.85384524806	;
JU418	7102.96821077	5.52045065181	;
JU419	7061.80401235	7.91012885802	;
JU420	7097.70389109	4.22034989712	;
JU421	7102.59613537	2.31079512928	;
JU422	7127.82709877	5.43978829806	;
JU423	7063.86149584	3.06270735085	;
JU424	7080.32610806	2.74539814279	;
JU425	7173.9462963	4.51242037037	;
JU426	7050.8125	3.48045	;
JU427	7043.56422178	3.76069156966	;
JU428	7079.73980325	2.79355945589	;
JU429	7100.36527529	2.64832497743	;
JU430	7058.02436343	3.19406055556	;
JU431	7095.43098813	4.25650035299	;
JU432	7097.47349971	3.5289055027	;
JU433	7072.82232478	3.61946363191	;
JU434	7103.37025881	2.80304164146	;
JU435	7043.56422178	3.76069156966	;
JU436	7099.92646771	2.51468971037	;
JU437	7134.59950846	4.16070645119	;
JU438	7063.75070845	2.47499718519	;
JU439	7096.94208333	6.34354722222	;
JU440	7081.7375	4.81496111111	;
JU441	7096.84167431	4.7816289284	;
JU442	7013.52608025	2.84386080247	;
JU443	7094.46200374	5.39871966764	;
JU444	7086.41611155	4.55840327432	;
JU445	7051.2209375	6.48415986111	;
JU446	7080.15763049	3.8420781936	;
JU447	7120.19444444	6.5157	;
JU448	7077.67638908	3.15466773938	;
JU449	7075.75549641	4.68900770607	;
JU450	7089.72485987	2.18549215455	;
JU451	7091.98938898	3.95212524576	;
JU452	7111.53657756	2.87716154161	;
JU453	7071.14473005	4.20831493886	;
JU454	7054.50433333	2.05054222222	;
JU455	7076.54629216	0.732282589286	;
JU456	7084.45122687	3.22862298677	;
JU457	7125.64403611	2.17102567622	;
JU458	7037.91666667	1.74083333333	;
JU459	7028.39477238	2.11773289609	;
JU460	7048.11571951	3.0386414605	;
JU461	7124.0400463	4.78968333333	;
JU462	7076.49433604	3.32813102917	;
JU463	7093.21840612	4.43217324524	;
JU464	7067.99184936	1.64181953811	;
JU465	7069.3419216	3.0965071388	;
JU466	7059.85190509	2.63556627546	;
JU467	7042.48978086	5.84898590432	;
JU468	7105.89688272	4.69073313272	;
JU469	7088.53478704	2.57852802575	;
JU470	7096.96624701	3.71415075399	;
JU471	7083.55871863	3.96425695974	;
JU472	7037.93129167	3.74062065278	;
JU473	7029.9078534	6.12165221142	;
JU474	7057.3913152	5.24410286767	;
JU475	7084.98625579	1.63067986111	;
JU476	7069.56973573	5.12130420525	;
JU477	7100.33819444	5.64910833333	;
JU478	7122.06295978	3.46671189261	;
JU479	7096.73476437	4.44212867786	;
JU480	7103.7428493	5.3391532836	;
JU481	7079.93119072	3.22869671627	;
JU482	7087.52694783	3.78194068783	;
JU483	7077.89815154	2.79575698413	;
JU484	7087.52694783	3.78194068783	;
JU485	7098.30549705	3.96445387622	;
JU486	7140.13895411	5.27086548687	;
JU487	7080.73591289	2.70833598544	;
JU488	7070.69617284	1.14596049383	;
JU489	7121.08164872	3.94118242918	;
JU490	7114.01906321	3.95537278632	;
JU491	7128.75900952	3.1671679784	;
JU492	7079.5114822	1.84556702469	;
JU493	7107.32367501	4.20631920896	;
JU494	7100.54850164	3.62506102592	;
JU495	7107.78731994	4.23165900637	;
JU496	7120.37749187	4.25711390452	;
JU497	7112.6503836	5.78692514403	;
JU498	7097.11197579	1.2984782749	;
JU499	7084.59337596	3.19194920686	;
JU500	7062.22285831	3.73286394605	;
JU501	7109.49072402	3.19560073624	;
JU502	7073.52169766	3.02222670751	;
JU503	7108.51673032	3.52489971065	;
JU504	7028.34360532	4.000796875	;
JU505	7084.08975754	4.58774303018	;
JU506	7056.51227344	3.83883537444	;
JU507	7109.39566082	3.98374327218	;
JU508	7093.93835735	2.81974496519	;
JU509	7110.97651566	4.32725649462	;
JU510	7086.45454415	2.73446412353	;
JU511	7092.23048716	3.92807464123	;
JU512	7105.22937459	4.21040088703	;
JU513	7039.45833333	2.65500583333	;
JU514	7091.68908953	2.70137232498	;
JU515	7095.11709336	3.77125970065	;
JU516	7114.34388889	4.75229638889	;
JU517	7092.4231648	3.29008423593	;
JU518	7074.625	2.05753703704	;
JU519	7073.31857639	2.39155381944	;
JU520	7096.58640569	4.56027350944	;
JU521	7105.09921724	4.21702268928	;
JU522	7059.65972222	2.77228703704	;
JU523	7120.1603642	3.63636388889	;
JU524	7117.73472222	6.04641185185	;
JU525	7059.49542187	3.4436836902	;
JU526	7089.35968994	4.75053979559	;
JU527	7098.67530609	5.55316114981	;
JU528	7086.1502544	3.79853834206	;
JU529	7098.4822552	2.78531135753	;
JU530	7058.52222222	6.89128888889	;
JU531	7133.54074544	2.70721196962	;
JU532	7068.88605636	3.3037308776	;
JU533	7107.43831945	5.29183237216	;
JU534	7117.16034361	5.0170349566	;
JU535	7059.9643843	5.85075447669	;
JU536	7146.1639761	5.55318571494	;
JU537	7164.61159336	2.47533236883	;
JU538	7097.97338477	5.23018322675	;
JU539	7099.95592427	5.58391303468	;
JU540	7098.7320576	5.2763475763	;
JU541	7116.83468311	5.13465220824	;
JU542	7116.63817897	5.62248567453	;
JU543	7081.9211416	4.23522481621	;
JU544	7111.02428938	6.11268258045	;
JU545	7077.64493786	6.04011920254	;
JU546	7107.68276429	10.1757878447	;
JU547	7108.0646334	7.69754733007	;
JU548	7133.86749486	4.71369266759	;
JU549	7112.26553146	4.21467028847	;
JU550	7114.20719951	4.46941054359	;
JU551	7101.74651801	7.17662092869	;
JU552	7119.00668867	5.1106510787	;
JU553	7117.17670524	1.66043911838	;
JU554	7138.31882064	6.96780314289	;
JU555	7122.97928723	6.08018523341	;
JU556	7125.16055556	6.29764555556	;
JU557	7173.15138889	7.96697962963	;
JU558	7149.38497226	6.6190272064	;
JU559	7109.21350926	2.76775660802	;
JU560	7106.2834053	2.99083118585	;
JU561	7123.23536426	6.30000948502	;
JU562	7096.35143969	5.33870505446	;
JU563	7106.386428	4.44863808986	;
JU564	7100.21645479	5.23047597159	;
JU565	7132.19142849	3.93506987066	;
JU566	7123.1681653	3.36244084323	;
JU567	7096.42594039	5.48113645255	;
JU568	7091.27370559	4.53516515584	;
JU569	7051.68385674	3.4058906893	;
JU570	7056.38734028	2.25222422704	;
JU571	7052.45036927	6.32957039976	;
JU572	7102.48793146	4.24800305041	;
JU573	7078.71153428	4.48238186049	;
JU574	7086.01110319	4.4268265956	;
JU575	7120.27682292	7.61998177083	;
JU576	7070.86310565	4.87457993317	;
JU577	7075.19024819	2.53869487602	;
JU578	7041.92456404	4.09824868827	;
JU579	7076.32149952	4.41340909539	;
JU580	7058.48848422	3.53239965706	;
JU581	7158.04509645	3.20431088349	;
JU582	7079.17606123	3.6742917993	;
JU583	7094.79523341	2.3399209429	;
JU584	7073.24324653	5.17038223958	;
JU585	7130.80040454	3.98055939536	;
JU586	7091.97300539	5.25086913343	;
JU587	7087.05790919	3.71655490288	;
JU588	7079.39345778	3.19231943111	;
JU589	7035.86079928	5.2994268297	;
JU590	7071.60620732	4.87627627688	;
JU591	7145.9170439	3.32625855624	;
JU592	7073.88716653	2.75843726544	;
JU593	7033.70023148	4.64769907407	;
JU594	7097.36528356	4.35114425926	;
JU595	7098.51867124	3.42292830363	;
JU596	7106.75	3.48166666667	;
JU597	7093.33389213	3.54697621111	;
JU598	7123.70392019	5.12127808854	;
JU599	7078.66024697	3.57832408497	;
JU600	7047.83173567	1.84556041676	;
JU601	7148.98269316	3.98539109311	;
JU602	7136.93743056	6.22207861111	;
JU603	7118.60720126	4.94391631851	;
JU604	7114.00072204	2.97232414117	;
JU605	7123.64581513	3.5121489652	;
JU606	7108.63466365	3.54554187958	;
JU607	7109.12791345	3.97797208067	;
JU608	7100.07433125	3.36521093185	;
JU609	6991.39467231	4.11188856337	;
JU610	7105.80625241	2.65381588783	;
JU611	7099.96625382	1.97173316585	;
JU612	7078.74480852	3.49725637584	;
JU613	7080.61210526	2.45388130084	;
JU614	7110.44498892	2.77772953972	;
JU615	7129.79517901	4.76304941358	;
JU616	7130.90849337	1.50496959305	;
JU617	7124.34911024	3.26516451003	;
JU618	7090.36887939	3.9670333268	;
JU619	7094.15520833	3.28465555556	;
JU620	7093.86720595	5.28325245827	;
JU621	7092.14667816	3.89249925234	;
JU622	7130.17930366	4.94386415111	;
JU623	7146.27777778	3.09481481481	;
JU624	7078.8716257	5.34287976763	;
JU625	7120.57908951	6.30698184156	;
JU626	7104.15150601	4.30908089476	;
JU627	7092.48593313	4.25605580355	;
JU628	7097.84038363	4.50208349603	;
JU629	7121.17939815	4.64378510802	;
JU630	7119.9940128	3.11096275682	;
JU631	7122.47619439	5.0146247214	;
JU632	7086.43485029	1.8240296664	;
JU633	7085.50398095	3.84663492625	;
JU634	7168.87037037	0.898064814815	;
JU635	7094.2118464	2.90492511661	;
JU636	7127.39015491	2.09705901245	;
JU637	7132.38893802	5.5424144403	;
JU638	7098.11356962	3.98158409065	;
JU639	7119.08560903	5.09570269619	;
JU640	7054.35377917	4.37518775833	;
JU641	7106.23853125	5.26533090664	;
JU642	7050.55618265	2.09886913176	;
JU643	7124.30509671	6.17880784499	;
JU644	7126.95852894	5.10288039337	;
JU645	7091.11498971	1.83500541838	;
JU646	7040.64519212	4.14078946286	;
JU647	7114.12012523	4.20207801528	;
JU648	7074.10517733	0.621007614087	;
JU649	7110.5553885	4.65632707192	;
JU650	7089.30490331	2.07312569444	;
JU651	7109.54085631	5.70501275391	;
JU652	7100.62451435	5.91436174055	;
JU653	7076.32149952	4.41340909539	;
JU654	7104.79646235	4.03580141435	;
JU655	7048.70853675	2.47895424627	;
JU656	7110.40630852	4.78193809539	;
JU657	7112.20223691	4.20146729221	;
JU658	7130.22968924	33.4918247735	;
JU659	7097.61005705	4.73292428679	;
JU660	7079.91335338	3.82502604955	;
JU661	7085.45346414	2.84820557613	;
JU662	7084.60587587	2.87527406134	;
JU663	7130.73072059	6.0743431713	;
JU664	7057.0375846	3.01711813932	;
JU665	7086.49371402	2.53507510802	;
JU666	7047.25053134	4.3802673027	;
JU667	7038.79465033	3.85233962926	;
JU668	7065.91964364	4.38045809685	;
JU669	7059.81542497	4.29552669427	;
JU670	7038.79465033	3.85233962926	;
JU671	7054.63014454	2.2432991674	;
JU672	7059.81542497	4.29552669427	;
JU673	7047.25053134	4.3802673027	;
JU674	7179.09749943	4.84163272748	;
JU675	7075.48027083	3.75112694444	;
JU676	7084.53898559	6.28164325031	;
JU677	7086.92079797	6.04271865355	;
JU678	7067.25582254	3.72292544769	;
JU679	7127.27713235	2.14786657223	;
JU680	7092.74050114	4.88095871184	;
JU681	7049.0143151	3.43614478993	;
JU682	7059.65972222	2.77228703704	;
JU683	7110.94242727	5.13094030113	;
JU684	7047.6029904	1.66249673525	;
JU685	7059.85006039	2.39700672428	;
JU686	7128.75931193	4.36576131033	;
JU687	7090.02077407	1.05056793519	;
JU688	7067.79221151	4.6970136963	;
JU689	7091.80828035	3.73483642233	;
JU690	7102.23391682	2.22120317438	;
JU691	7075.00006645	3.01282524169	;
JU692	7073.05969483	2.66261493893	;
JU693	7066.20574631	3.77670309993	;
JU694	7084.14047357	1.34924283366	;
JU695	7071.77533725	3.01857565584	;
JU696	7124.86900648	6.46515894136	;
JU697	7096.74154956	4.27669823095	;
JU698	7089.47772135	2.59019140484	;
JU699	7091.27328492	3.00630525389	;
JU700	7047.07753277	3.20299646267	;
JU701	7091.05275184	4.68984900249	;
JU702	7065.54423005	3.0894046457	;
JU703	7094.09631867	5.70853539352	;
JU704	7066.01516204	2.5619221142	;
JU705	7101.72557026	4.18411659026	;
JU706	7070.34375	4.50341666667	;
JU707	7115.95356019	6.02349978395	;
JU708	7086.49815856	3.89342733172	;
JU709	7038.0138561	3.94351567001	;
JU710	7121.24074622	4.06671822138	;
JU711	7074.80555556	5.92973611111	;
JU712	7068.53703704	6.51937962963	;
JU713	7073.34128086	4.48596512346	;
JU714	7048.7782376	3.13286797268	;
JU715	7058.35237185	2.42568005505	;
JU716	7027.95555556	7.79620277778	;
JU717	7096.83612014	4.08520823581	;
JU718	7037.70506173	5.05887555556	;
JU719	7033.26061728	5.05887555556	;
JU720	7086.82192387	2.63357789438	;
JU721	7075.97724868	2.63579252101	;
JU722	7098.45524691	3.23851234568	;
JU723	7094.46107323	2.58797526138	;
JU724	7082.71637902	4.03956109565	;
JU725	7138.54050926	0.412661111111	;
JU726	7044.8262037	3.69268888889	;
JU727	7053.91314463	3.79183055727	;
JU728	7152.27699331	3.54532842078	;
JU729	7065.12665649	5.04087880176	;
JU730	7062.81291146	4.51373604833	;
JU731	7069.18935458	4.36890827455	;
JU732	7064.45778715	5.19569152762	;
JU733	7045.98840568	3.58580392054	;
JU734	7070.84895833	3.31841550926	;
JU735	7075.39649465	3.21857936149	;
JU736	7047.2733844	4.30019292581	;
JU737	7046.9647925	5.05475469512	;
JU738	7048.94272542	5.58103596251	;
JU739	7029.93767348	4.90617735661	;
JU740	7066.38817627	4.53864625555	;
JU741	7051.34399032	4.71132016043	;
JU742	7073.02996013	4.93575151749	;
JU743	6991.39467231	4.11188856337	;
JU744	7110.27730311	3.08632368511	;
JU745	7100.23250412	1.66860003344	;
JU746	7086.08364154	2.21304738577	;
JU747	7124.35491883	1.33852412032	;
JU748	7105.66950023	3.38723669492	;
JU749	7086.20683308	4.3516960826	;
JU750	7115.99198478	3.56440253834	;
JU751	7096.1435571	5.21249117615	;
JU752	7089.60418283	4.36057784281	;
JU753	7053.03030478	2.52276753638	;
JU754	7074.53635732	3.47763845369	;
JU755	7050.92016645	4.18506498016	;
JU756	7057.91577088	4.33538184943	;
JU757	7113.12281955	2.10333786008	;
JU758	7109.25471	2.66215050447	;
JU759	7075.88909711	3.40649050463	;
JU760	7110.46669382	2.77657863692	;
JU761	7059.18562009	4.50296112849	;
JU762	7094.91829371	5.19701151186	;
JU763	7088.24524653	2.51514493599	;
JU764	7073.74467593	3.78568634259	;
JU765	7033.150625	3.87449960648	;
JU766	7101.46663284	4.21537539207	;
JU767	7065.54250756	3.29730022354	;
JU768	7113.35790186	3.00006931791	;
JU769	7083.23045284	1.51422879097	;
JU770	7112.38610112	3.57331444433	;
JU771	7080.08226916	5.04657434028	;
JU772	7173.03114226	4.90957059785	;
JU773	7070.39322702	5.09076319587	;
JU774	7090.82426525	2.24869512206	;
JU775	7117.05458378	3.22986219097	;
JU776	7113.27246478	4.41310679825	;
JU777	7049.52662094	2.18573199283	;
JU778	7108.34909972	5.233815658	;
JU779	7095.61016276	4.36931399981	;
JU780	7133.95932446	5.44540200412	;
JU781	7109.01095008	5.32550275948	;
JU782	7098.08134144	6.32251756173	;
JU783	7110.82987598	5.56325108736	;
JU784	7095.23369198	4.30745486749	;
JU785	7113.17876311	4.99084039967	;
JU786	7127.26968783	3.93420949203	;
JU787	7098.78793724	2.86581751543	;
JU788	7088.72905982	4.48491470737	;
JU789	7037.06297325	5.28566679012	;
JU790	7065.15808012	2.46144339825	;
JU791	7084.81752387	3.76248039641	;
JU792	7095.22541085	3.91494962141	;
JU793	7081.18555556	4.12735333333	;
JU794	7117.43444573	3.11744926698	;
JU795	7085.56578518	2.13096376754	;
JU796	7054.46777478	4.54292085905	;
JU797	7102.23391682	2.22120317438	;
JU798	7132.95234534	4.67484311683	;
JU799	7121.50932196	3.34867064746	;
JU800	7068.0195136	2.72204313058	;
JU801	7106.03848219	4.30443521778	;
JU802	7073.40179107	4.34549254988	;
JU803	7098.78793724	2.86581751543	;
JU804	7126.98087411	5.93225830452	;
JU805	7049.47982804	1.74615520282	;
JU806	7104.39808156	5.27977788125	;
JU807	7071.662881	4.06621448021	;
JU808	7099.14588955	0.69438630043	;
JU809	7041.89180703	5.15554421582	;
JU810	7029.93767348	4.90617735661	;
JU811	7141.3352677	6.31819010417	;
JU812	7128.68166667	5.68144222222	;
JU813	7060.76444444	3.26236	;
JU814	7087.69500713	2.93054424441	;
JU815	7110.86544884	5.99272714087	;
JU816	7110.0391358	5.8076382716	;
JU817	7065.70574524	4.73559486883	;
JU818	7072.99442914	2.35797607205	;
JU819	7091.35829861	4.65177	;
JU820	7037.88721183	0.913539865599	;
JU821	7071.6552469	5.41431472726	;
JU822	7086.49815856	3.89342733172	;
JU823	7130.99999132	5.17215501119	;
JU824	7085.78836644	2.19389144689	;
JU825	7022.02290702	2.54983616255	;
JU826	7130.87560764	6.26447152778	;
JU827	7078.52543227	3.49275754753	;
JU828	7085.64329344	3.00028788214	;
JU829	7090.01114885	4.57799737744	;
JU830	7126.11805556	0.426202777778	;
JU831	7039.91689216	2.58489995901	;
JU832	7068.94821245	3.79558299383	;
JU833	7080.55246914	4.96364320988	;
JU834	7100.923754	2.63582280852	;
JU835	7085.52049399	3.82347162117	;
JU836	7122.00767141	3.82151541967	;
JU837	7081.89062194	2.72577249025	;
JU838	7019.97854203	5.91733524397	;
JU839	7058.90930556	6.87533771605	;
JU840	7121.18160949	5.48745804303	;
JU841	7087.10512788	4.71066857275	;
JU842	7071.08690872	3.29533881344	;
JU843	7090.1815162	3.01442314815	;
JU844	7090.8752032	3.65662289595	;