[TITLE]
Generated synthetic network;

[JUNCTIONS]
;ID	Elev	Demand	Pattern
JU3	7077.0432594	7.52653677218	;
JU4	7121.69438435	2.83120790019	;
JU5	7148.86241319	6.13255251736	;
JU6	7035.75	7.37975	;
JU7	7082.4992953	4.21204522862	;
JU8	7067.36694102	6.52448696845	;
JU9	7045.42541152	5.1932026749	;
JU10	7077.58024691	8.1664691358	;
JU11	7070.18518519	8.12162962963	;
JU12	7105.80231481	4.61699474826	;
JU13	7075.97858796	8.19738078704	;
JU15	7111.47438803	4.0327374432	;
JU16	7084.82386387	3.75521182848	;
JU17	7069.17003887	4.86975228624	;
JU18	7074.40911182	2.47159466304	;
JU19	7142.45502447	4.90632599237	;
JU20	7063.62620719	4.07346723104	;
JU21	7048.3770626	2.94386658373	;
JU22	7114.05929481	4.13001885282	;
JU23	7089.35903275	4.30203236439	;
JU24	7097.85874689	4.6755061248	;
JU25	7088.78201701	2.55913550393	;
JU26	7092.25441719	2.17304492106	;
JU27	7100.39802948	3.5530319247	;
JU28	7093.72509716	3.74824912731	;
JU29	7087.95187371	4.2536377736	;
JU30	7064.78207255	4.67508337513	;
JU31	7050.599393	5.63452399799	;
JU32	7097.16685057	4.71372730967	;
JU33	7100.20455376	3.67873355453	;
JU34	7087.0249866	3.95511988898	;
JU35	7088.76187809	4.95642766049	;
JU36	7088.45029578	4.0498593107	;
JU37	7105.05231433	3.94285101659	;
JU38	7091.87153364	4.77536014994	;
JU39	7097.41524816	3.67044985342	;
JU40	7104.28096377	5.36166440445	;
JU41	7107.1429036	4.15444104558	;
JU42	7068.34776421	4.73480602433	;
JU43	7065.43020062	5.98373274838	;
JU44	7126.26675827	5.03383297761	;
JU45	7126.73103539	4.76386353742	;
JU46	7094.33873555	4.26849678556	;
JU47	7137.19090195	5.2178380043	;
JU48	7099.44518323	3.4972576346	;
JU49	7073.84046742	5.35416845985	;
JU50	7114.94719907	4.09022685185	;
JU51	7098.90207031	3.93048756451	;
JU52	7116.32292245	4.40399821759	;
JU54	7120.3145764	3.14297659574	;
JU55	7088.42829968	3.36160390357	;
JU56	7078.85162222	3.71319033333	;
JU57	7120.59572855	4.33362687805	;
JU58	7099.27852238	3.76493502315	;
JU59	7098.93590509	6.01229884027	;
JU60	7065.36390752	4.64691101134	;
JU61	7063.98559028	4.680325	;
JU62	7084.97694991	4.39906186182	;
JU63	7122.80242541	5.95460987654	;
JU64	7113.47024691	3.95017320988	;
JU65	7071.43280864	3.82045839506	;
JU66	7051.22636725	5.14828499412	;
JU67	7174.27644399	7.01357739689	;
JU68	7096.343107	1.68175	;
JU69	7059.29896577	1.37774141454	;
JU70	7053.05265432	5.53870364198	;
JU71	7095.32701926	3.70121159376	;
JU72	7101.99463735	4.34751853057	;
JU73	7071.55006531	3.51229359552	;
JU74	7081.19411061	4.9131308705	;
JU75	7075.91358025	3.24761728395	;
JU76	7112.27552421	4.1507466956	;
JU77	7078.96296296	2.08548148148	;
JU78	7138.87617676	5.80959990379	;
JU79	7092.68740923	3.59626399617	;
JU80	7079.78009259	5.04287592593	;
JU81	7112.15194444	3.49581777778	;
JU82	7105.14351852	3.19028703704	;
JU83	7096.7048071	3.71917630144	;
JU84	7123.05397226	4.50291038859	;
JU85	7073.52104999	2.92953830295	;
JU86	7100.3669289	3.71898945034	;
JU87	7111.80163483	3.93997986078	;
JU88	7097.49461187	3.59118437339	;
JU89	7063.8627662	2.65238333333	;
JU90	7076.33287398	3.42786622085	;
JU91	7121.2536125	5.67302788066	;
JU92	7062.93606795	3.25181329572	;
JU93	7059.69736111	2.95406481481	;
JU94	7127.37702377	5.07359823134	;
JU95	7155.50206147	4.86225123971	;
JU96	7097.16914921	3.87656227161	;
JU97	7037.72114198	4.56235833333	;
JU98	7056.07696274	5.04176167897	;
JU99	7082.9371142	2.72572482639	;
JU100	7091.51048925	4.29286767261	;
JU101	7035.76171328	1.23699267659	;
JU102	7075.34162524	5.27350641151	;
JU103	7100.39802948	3.5530319247	;
JU104	7068.22493369	2.72115814435	;
JU105	7109.08657407	3.84603765432	;
JU106	7096.64799107	3.52391634425	;
JU107	7118.38620952	5.00171249603	;
JU108	7082.58031536	4.38194111054	;
JU109	7122.17505957	4.17792915691	;
JU110	7088.39199755	6.31972695492	;
JU111	7112.18495213	5.31339393514	;
JU113	7062.22510498	3.1279513984	;
JU114	7095.7775463	1.91980606996	;
JU115	7101.86653074	1.74966010288	;
JU116	7123.22770705	5.45126448367	;
JU117	7118.58159722	1.30458969907	;
JU118	7104.85435971	4.68607913433	;
JU119	7104.72073688	6.701340625	;
JU120	7092.1273285	3.22965663249	;
JU121	7072.5105707	5.4944760729	;
JU122	7118.68086909	3.96706877752	;
JU123	7073.58404107	4.70906502568	;
JU124	7089.22272721	3.35221917911	;
JU125	7122.60416667	7.73116666667	;
JU126	7112.69098187	5.63813784722	;
JU127	7121.37790621	4.79151902546	;
JU128	7107.35030845	3.23517180324	;
JU129	7098.89634156	3.25726355117	;
JU130	7112.09092656	0.670125524901	;
JU131	7097.79088829	3.66739638582	;
JU132	7092.84469733	3.65251349663	;
JU133	7089.71122793	3.33154880956	;
JU134	7070.09961629	4.95760094428	;
JU135	7059.84949804	5.26243325454	;
JU136	7079.50656399	5.51888522098	;
JU137	7083.31714665	3.43826566806	;
JU138	7100.41592008	5.15249923455	;
JU139	7037.45484326	3.97952100299	;
JU140	7057.72505109	4.93240588486	;
JU141	7070.41590856	4.37740127846	;
JU142	7085.52916667	5.74427777778	;
JU143	7127.40841597	1.35677220277	;
JU144	7056.81607832	2.29497666196	;
JU145	7064.73472222	3.45284166667	;
JU146	7102.40587626	4.71310530572	;
JU147	7106.92592593	4.51222222222	;
JU148	7047.14817612	4.62906951727	;
JU149	7069.61188515	3.12830365507	;
JU150	7147.24738513	5.99486360315	;
JU151	7072.2925568	2.5516596092	;
JU152	7029.09814815	4.21614259259	;
JU153	7097.40463686	3.76481348958	;
JU154	7089.02461946	2.51716995517	;
JU155	7082.77611642	3.19167222994	;
JU156	7039.0625	4.143875	;
JU157	7105.61678538	4.83593564053	;
JU158	7069.61924913	5.16879217303	;
JU159	7079.2748714	3.59605889918	;
JU160	7114.22525569	4.93997616158	;
JU161	7093.60898148	4.1098725	;
JU162	7116.76518519	2.65609796296	;
JU163	7077.50749196	4.89870814716	;
JU164	7142.22339583	5.05767645833	;
JU165	7104.09989349	5.0145596555	;
JU166	7140.96947118	5.07168518022	;
JU167	7145.32852587	2.01980706353	;
JU168	7093.64058974	4.74608084753	;
JU169	7081.58643353	2.44375357143	;
JU170	7067.28409491	5.65006035185	;
JU171	7057.11556959	5.36361564899	;
JU172	7035.44777739	7.31267780402	;
JU173	7093.59929655	3.09215361093	;
JU174	7045.91779972	3.18514036973	;
JU175	7099.71801087	3.96347321988	;
JU176	7100.40717593	5.80706956202	;
JU177	7043.89226852	3.28310375	;
JU178	7048.86608747	3.02033807551	;
JU179	7065.72476401	2.08147298154	;
JU180	7072.36900512	2.14857141343	;
JU181	7096.56746434	3.04250885345	;
JU182	7060.21055556	4.47892240741	;
JU183	7064.83469191	3.95854169234	;
JU184	7061.4766209	2.38477454633	;
JU185	7081.86445313	3.821696875	;
JU186	7126.42081829	4.78980606019	;
JU187	7087.52083333	5.05897916667	;
JU188	7076.11037311	4.84749783334	;
JU189	7123.80014478	6.36409432858	;
JU190	7105.5595073	4.03467580202	;
JU191	7074.1880994	3.12032256278	;
JU192	7111.22517361	1.15606157407	;
JU193	7096.18770255	1.63595499614	;
JU194	7100.61128586	3.20602097918	;
JU195	7109.08657407	3.84603765432	;
JU196	7140.38229167	1.44954305556	;
JU197	7065.24995591	3.16907475771	;
JU198	7057.58474165	3.23069218999	;
JU199	7143.26828704	2.08468503086	;
JU200	7068.91563316	4.36212710646	;
JU201	7077.96798033	4.36550771627	;
JU202	7070.07448949	2.50767515246	;
JU203	7083.208504	3.00655772265	;
JU204	7047.78885922	2.90314287037	;
JU205	7066.45543207	1.95347011258	;
JU206	7073.84728407	4.77716095673	;
JU207	7041.62950103	4.95719135802	;
JU208	7074.52656346	2.83681764771	;
JU209	7110.22426892	4.46898973083	;
JU210	7103.92416604	3.99189779813	;
JU211	7127.64127431	5.59531991223	;
JU212	7089.10470012	3.78882722691	;
JU213	7055.23627661	2.38938145383	;
JU214	7070.53032141	3.65351834854	;
JU215	7084.55349794	4.55850403807	;
JU216	7103.12029984	6.08607148437	;
JU217	7101.1986963	3.53086313734	;
JU218	7071.28121408	5.65099079519	;
JU219	7084.27550952	4.48092699972	;
JU220	7039.77339911	4.23809391879	;
JU221	7110.3731246	3.98220339477	;
JU222	7092.79770079	5.05131930513	;
JU223	7060.12436694	2.40627742541	;
JU224	7069.74014696	5.40060692405	;
JU225	7044.2644281	4.56292617481	;
JU226	7091.78567164	2.90399493587	;
JU227	7129.6154243	4.7894743373	;
JU228	7104.21091564	5.88202777778	;
JU229	7054.55960648	3.86221527778	;
JU230	7105.3389266	5.55479577796	;
JU231	7131.37672154	6.66422962963	;
JU232	7083.65939651	5.8918565376	;
JU233	7095.68188529	3.29084481996	;
JU234	7060.30186049	3.5041152716	;
JU235	7162.77616831	3.54791154914	;
JU236	7096.05372731	3.59222905025	;
JU237	7115.0505787	4.64755003279	;
JU238	7109.97762008	4.45034632523	;
JU239	7054.18086534	4.60436060242	;
JU240	7111.66377871	4.08169637114	;
JU241	7098.98666667	4.61442421296	;
JU242	7132.18651162	4.51838931886	;
JU243	7125.69513889	1.92314351852	;
JU244	7109.61471354	5.23835763889	;
JU245	7077.94161596	2.94354738904	;
JU246	7082.27530759	3.56909424772	;
JU247	7093.76275684	6.02286130815	;
JU248	7079.25816472	4.75837865798	;
JU249	7053.42414459	3.33479372214	;
JU250	7096.29710005	6.48097402841	;
JU251	7081.17824074	5.99893518519	;
JU252	7084.76029214	5.59786348251	;
JU253	7098.77457224	3.73164509491	;
JU254	7056.07337963	2.55722453704	;
JU255	7093.65810185	3.3462637963	;
JU256	7101.63957787	3.34188511767	;
JU257	7082.58564815	5.7358287037	;
JU258	7095.55516975	4.60226028807	;
JU259	7134.77016296	7.08591347407	;
JU260	7114.29359568	5.08355987654	;
JU261	7112.99168896	5.56968832647	;
JU262	7083.02804034	2.36606089249	;
JU263	7108.19377558	3.55554510924	;
JU264	7081.32241552	3.31159120648	;
JU265	7141.17931389	4.31227027623	;
JU266	7113.6822516	4.11796013911	;
JU267	7077.93420268	4.24833667631	;
JU268	7117.49965498	2.87579297862	;
JU269	7109.62512929	2.4922935234	;
JU270	7113.1961032	2.99609586471	;
JU271	7120.6599968	2.80767206953	;
JU272	7054.39706911	3.18575383391	;
JU273	7052.52309355	2.61783844578	;
JU274	7049.11295134	1.70275007635	;
JU275	7076.71437658	3.96090256794	;
JU276	7054.37021138	3.51211643699	;
JU277	7091.51048925	4.29286767261	;
JU278	7081.88604602	3.50507167979	;
JU279	7064.46591805	2.59282488272	;
JU280	7060.9448538	3.19043051094	;
JU281	7082.69060764	5.76438401235	;
JU282	7106.45530645	4.45906451248	;
JU283	7112.46666667	2.81133333333	;
JU284	7081.32241552	3.31159120648	;
JU285	7098.17034851	3.09309071811	;
JU286	7154.83185941	6.59864172336	;
JU287	7116.78062963	3.64078222222	;
JU288	7063.78483091	3.73101051659	;
JU289	7108.86562886	4.17197256944	;
JU290	7072.13518519	2.25082962963	;
JU291	7137.85657032	1.80722167567	;
JU292	7087.22296007	4.6069261996	;
JU293	7088.76821731	3.72711487101	;
JU294	7112.94118656	2.49818715706	;
JU295	7170.47480808	3.51557147581	;
JU296	7034.83333333	1.87422222222	;
JU297	7078.01614868	3.5288343143	;
JU298	7135.94444444	4.909	;
JU299	7130.22061127	3.67429401932	;
JU300	7132.30813117	5.69632928394	;
JU301	7102.6203795	5.53970775141	;
JU302	7092.95348006	3.68788644413	;
JU303	7099.33121735	3.97432061201	;
JU304	7071.98650206	7.80757613169	;
JU305	7068.19767257	5.415654625	;
JU306	7107.79070372	5.39040891506	;
JU307	7087.88211071	4.30825184491	;
JU308	7069.92082	4.87490976985	;
JU309	7055.72757824	5.70008083557	;
JU310	7075.35331648	7.90926324201	;
JU311	7080.15953414	2.33675876827	;
JU312	7072.3096612	4.2059926671	;
JU313	7115.4961904	3.76115874666	;
JU314	7133.37101492	4.47292632591	;
JU315	7120.66004611	4.56945973172	;
JU316	7075.32214506	4.40008440635	;
JU317	7103.31709346	4.20598929398	;
JU318	7107.39074436	5.19476558431	;
JU319	7095.51587106	4.84449691782	;
JU320	7065.72795328	4.60638118255	;
JU321	7071.37471422	2.2532693187	;
JU322	7076.12088879	4.30560878424	;
JU323	7072.90645176	4.3207982789	;
JU324	7102.77608989	2.53194386574	;
JU325	7082.63635545	4.41044	;
JU326	7032.61458333	3.76291898148	;
JU327	7071.28121408	5.65099079519	;
JU328	7105.27390689	1.49673287037	;
JU329	7110.01808896	1.36189965354	;
JU330	7083.62182194	3.71330422407	;
JU331	7123.70777778	0.565520277778	;
JU332	7145.63713164	3.23067982254	;
JU333	7099.59381273	4.49439222844	;
JU334	7092.99875512	2.81678453414	;
JU335	7090.27076226	2.98269348634	;
JU336	7093.86949564	4.47922116499	;
JU337	7076.6087963	4.52976851852	;
JU338	7066.71084786	5.23142180106	;
JU339	7098.21955208	2.48271423381	;
JU340	7158.94541824	6.96968770471	;
JU341	7138.70502766	2.46378405051	;
JU342	7089.30249417	3.23024469751	;
JU343	7077.53169296	4.90647279378	;
JU344	7072.33246837	3.62575907844	;
JU345	7118.77021065	3.67709631944	;
JU346	7094.96120466	5.22268244349	;
JU347	7071.91953125	2.09333753472	;
JU348	7134.72292363	3.4134790694	;
JU349	7114.3815562	2.88326592889	;
JU350	7079.2748714	3.59605889918	;
JU351	7119.64222401	3.3969020183	;
JU352	7055.56740349	5.12037780129	;
JU353	7066.98032407	2.29462037037	;
JU354	7075.00823656	3.82739963775	;
JU355	7071.76846136	2.20746867856	;
JU356	7050.18725309	4.78762288066	;
JU357	7103.95354938	4.31391574074	;
JU358	7106.83508873	3.59958171296	;
JU359	7095.8906893	1.67104166667	;
JU360	7135.83722817	1.96282364005	;
JU361	7012.60416667	4.38966666667	;
JU362	7078.57056307	3.35541118599	;
JU363	7108.40773578	5.49990213823	;
JU364	7103.13379244	5.68142962963	;
JU365	7110.68252315	5.43720350652	;
JU366	7098.14193743	3.39437167578	;
JU367	7055.70589802	2.61991953139	;
JU368	7113.31326058	5.41332753527	;
JU369	7101.11998883	3.23941396161	;
JU370	7118.27471238	3.66166026042	;
JU371	7088.46236798	3.54678413448	;
JU372	7105.86389702	5.47465844157	;
JU373	7075.30898405	5.24614207305	;
JU374	7119.45618596	5.30336525926	;
JU375	7055.70589802	2.61991953139	;
JU376	7120.79510974	6.20282592593	;
JU377	7116.02453704	2.59196975309	;
JU378	7088.44450185	4.1365414537	;
JU379	7089.82714396	3.84149246032	;
JU380	7051.02160494	5.99621790123	;
JU381	7109.38795844	3.15003091815	;
JU382	7043.3864995	2.50995149108	;
JU383	7048.66665151	3.56440511769	;
JU384	7118.8563124	2.88855272662	;
JU385	7121.78674359	2.53193414756	;
JU386	7127.21311958	2.92309801336	;
JU387	7069.85044488	4.31832559432	;
JU388	7105.40969277	2.78532826338	;
JU389	7101.573043	3.37670605877	;
JU390	7078.0919611	4.44354690856	;
JU391	7099.67150693	4.03327066697	;
JU392	7091.2689909	3.91712125318	;
JU393	7154.43818158	4.26249801955	;
JU394	7057.47231893	1.67612399177	;
JU395	7088.91102199	2.53672972308	;
JU396	7106.75462963	2.36620833333	;
JU397	7148.4465162	5.02259342593	;
JU398	7067.69406366	2.76427640553	;
JU399	7068.27117187	4.09889925099	;
JU400	7101.663125	4.940015	;
JU401	7098.71977559	4.80572832819	;
JU402	7128.62374894	4.71067040722	;
JU403	7082.91741071	3.28598358135	;
JU404	7080.66681861	4.59356129572	;
JU405	7071.85102857	1.0104349537	;
JU406	7109.9661643	3.79041636675	;
JU407	7093.279574	3.07948287369	;
JU408	7066.5345679	2.88455308642	;
JU409	7104.58593183	3.88103948261	;
JU410	7031.76213919	2.38074938685	;
JU411	7079.92695367	3.1403971561	;
JU412	7068.62948695	3.77717960914	;
JU413	7075.36683333	5.59545755556	;
JU414	7111.6125179	3.49521434988	;
JU415	7029.5474537	2.87357060185	;
JU416	7001.74166667	4.63028005642	;
JU417	7059.29838203	3.01618434795	;
JU418	7106.8207298	6.08927872661	;
JU419	7067.8305982	4.92026869518	;
JU420	7068.77955701	2.70387697905	;
JU421	7112.12728193	2.41514573192	;
JU422	7084.71713063	4.16802070675	;
JU423	7073.32598283	3.15236102532	;
JU424	7058.96997532	2.95637223081	;
JU425	7071.79388119	3.94173999063	;
JU426	7064.0979289	3.50608109629	;
JU427	7138.03642857	1.85812857143	;
JU428	7103.12690972	4.80018261317	;
JU429	7005.77553111	4.52211594444	;
JU430	7090.83421692	2.85570292094	;
JU431	7074.25344811	1.72772977752	;
JU432	7115.29856771	4.28185460069	;
JU433	7096.74159459	3.48866190419	;
JU434	7054.92583314	1.91370633549	;
JU435	7089.11613169	4.30206781764	;
JU436	7094.92091769	4.88874612892	;
JU437	7073.75925926	3.5092037037	;
JU438	7067.63605967	3.7590308642	;
JU439	7076.14521148	4.54822176497	;
JU440	7077.82078489	2.76480483711	;
JU441	7072.29315361	3.46774633488	;
JU442	7097.35470089	3.21844026462	;
JU443	7099.71801087	3.96347321988	;
JU444	7046.08252709	3.17683271026	;
JU445	7065.07292245	9.69525193704	;
JU446	7074.35841612	2.25507255725	;
JU447	7067.63605967	3.7590308642	;
JU448	7076.93759921	3.43689143519	;
JU449	7100.61128586	3.20602097918	;
JU450	7103.25878987	3.99394270833	;
JU451	7101.96296296	4.60611111111	;
JU452	7152.01728974	5.08628364969	;
JU453	7068.50417778	5.02484074074	;
JU454	7076.43069686	4.661381277	;
JU455	7065.66599913	2.85719269741	;
JU456	7112.47112476	4.07179838534	;
JU457	7049.89513664	3.83312941872	;
JU458	7072.85598802	4.22825817653	;
JU459	7066.82897652	3.61987396726	;
JU460	7094.03019165	4.88777980894	;
JU461	7064.24198124	2.3684134518	;
JU462	7089.44603573	2.10853417031	;
JU463	7161.23191551	4.71074395576	;
JU464	7066.05971854	2.80613970907	;
JU465	7077.31027464	4.70005127291	;
JU466	7070.51150457	3.55352706035	;
JU467	7112.6875	2.635625	;
JU468	7122.02801896	5.8138188786	;
JU469	7069.54584887	3.58558211163	;
JU470	7062.54016718	19.1115539463	;
JU471	7078.57056307	3.35541118599	;
JU472	7094.17932677	3.79021517361	;
JU473	7073.98259444	2.18500789368	;
JU474	7091.42257732	3.4123193483	;
JU475	7061.4302824	3.1565215904	;
JU476	7071.46292764	3.78322061385	;
JU477	7071.61472589	1.3422302524	;
JU478	7095.86412685	3.71281821849	;
JU479	7084.13424726	3.58090327503	;
JU480	7056.8946142	4.18514361111	;
JU481	7070.90305633	3.40164077623	;
JU482	7051.69319444	1.74931111111	;
JU483	7058.7830271	1.9521168017	;
JU484	7091.45281636	2.03482145062	;
JU485	7073.34607819	4.63182483951	;
JU486	7106.57635995	6.97013350694	;
JU487	7096.00027263	4.01855709877	;
JU488	7064.87601604	4.30268759923	;
JU489	7129.18694509	4.40707098573	;
JU490	7084.78674769	4.73484773148	;
JU491	7045.34390754	5.00739737654	;
JU492	7157.71079617	6.98857572436	;
JU493	7082.35617557	4.68766781244	;
JU494	7088.07390046	3.44710321502	;
JU495	7092.27540509	2.63008337191	;
JU496	7070.62639612	3.98866201813	;
JU497	7092.27540509	2.63008337191	;
JU498	7062.89191045	4.16495403453	;
JU499	7118.28371137	4.72383114644	;
JU500	7115.51454323	2.98756492155	;
JU501	7085.46393233	5.14123530559	;
JU502	7056.40047565	2.00201477933	;
JU503	7081.07680035	3.60682850187	;
JU504	7083.6842371	4.34362154431	;
JU505	7132.7018862	183.752909971	;
JU506	7117.14275444	312.398783365	;
JU507	7126.23667462	5.80772025752	;
JU508	7091.88339261	4.12571097636	;
JU509	7147.28393287	5.99447338657	;
JU510	7147.62920602	6.02767263079	;
JU511	7148.84905265	23.8837860359	;
JU512	7148.84905265	23.8837860359	;
JU513	7078.29586667	5.43288993056	;
JU514	7083.91023663	2.59552222222	;
JU515	7104.4446352	3.67994789952	;
JU516	7113.25961934	4.33533343621	;
JU517	7079.55833333	3.84356666667	;
JU518	7067.74340683	5.25363084587	;
JU519	7083.36138731	4.8430321183	;
JU520	7122.53771637	3.13487561225	;
JU521	7055.79648555	2.14723464335	;
JU522	7107.00524923	3.52550902932	;
JU523	7116.81534788	4.32328818871	;
JU524	7134.8200253	5.47197305688	;
JU525	7092.44746431	4.52143005247	;
JU526	7082.70284417	2.64270278921	;
JU527	7154.54222357	6.65273073102	;
JU528	7069.21136048	5.54373088785	;
JU529	7145.1390625	5.55389970238	;
JU530	7054.3974816	3.28901956776	;
JU531	7087.58742017	3.80144734739	;
JU532	7058.92324281	6.10341771123	;
JU533	7095.03125	3.365375	;
JU534	7121.70793956	5.49920219907	;
JU535	7110.22153881	3.16685094633	;
JU536	7116.59998025	4.34405971624	;
JU537	7105.05078807	2.73850789379	;
JU538	7088.26639119	3.75926988851	;
JU539	7097.12886259	5.85525703929	;
JU540	7050.08186865	5.07457467335	;
JU541	7073.75462368	3.87858461863	;
JU542	7093.9347443	3.84043807785	;
JU543	7077.83815608	4.84014073016	;
JU544	7062.1037202	3.36320848668	;
JU545	7111.50949171	3.82277791538	;
JU546	7173.75464892	1.18546354167	;
JU547	7129.02441337	4.03314948114	;
JU548	7089.6864408	4.62787012954	;
JU549	7061.4766209	2.38477454633	;
JU550	7160.46417666	5.13645879208	;
JU551	7074.61012645	1.53923051855	;
JU552	7106.125	4.91983333333	;
JU553	7109.40285085	4.64378938575	;
JU554	7063.2198484	2.13071267104	;
JU555	7068.20249005	2.72435218338	;
JU556	7101.18185475	2.43537674093	;
JU557	7067.39420065	2.93222209005	;
JU558	7092.46224311	5.7370996008	;
JU559	7085.28552062	6.22963676162	;
JU560	7116.60328414	6.30893055556	;
JU561	7109.02332538	6.47092693866	;
JU562	7101.09794141	2.5446279117	;
JU563	7092.77613741	4.74009466856	;
JU564	7140.38862838	2.68485612341	;
JU565	7131.37404319	4.48510622158	;
JU566	7096.07494305	3.62387915197	;
JU567	7077.74076025	1.86732137441	;
JU568	7051.11625231	2.91229147222	;
JU569	7087.61772499	2.0693421213	;
JU570	7093.11133446	2.26601521989	;
JU571	7053.26949749	4.28266148245	;
JU572	7078.70757913	3.18575155801	;
JU573	7027.53333333	7.99713333333	;
JU574	7116.86895685	4.51349099877	;
JU575	7078.02834	2.40365751141	;
JU576	7052.48949219	2.48362825521	;
JU577	7067.45117187	4.17582159047	;
JU578	7075.65657932	3.20574445658	;
JU579	7053.72665292	2.47018860677	;
JU580	7132.63206321	4.22603353591	;
JU581	7138.05936823	3.85087742045	;
JU582	7137.19090195	5.2178380043	;
JU583	7126.73103539	4.76386353742	;
JU584	7139.00304651	3.21427745294	;
JU585	7079.4109574	4.46065275126	;
JU586	7105.3389266	5.55479577796	;
JU587	7120.37094907	1.25493537809	;
JU588	7111.78656523	4.49795979424	;
JU589	7107.1429036	4.15444104558	;
JU590	7072.29745413	3.70119567212	;
JU591	7088.42829968	3.36160390357	;
JU592	7152.66059106	3.45388254808	;
JU593	7063.33618056	4.45901666667	;
JU594	7122.13304826	5.49136170795	;
JU595	7103.12088477	4.5880235661	;
JU596	7150.73333333	7.21643333333	;
JU597	7108.04899498	1.90333778549	;
JU598	7062.7370006	4.59123560571	;
JU599	7074.12682533	3.49053944954	;
JU600	7096.67771196	3.14304378706	;
JU601	7082.65400014	3.65802650222	;
JU602	7087.86591251	3.90781991427	;
JU603	7120.53725675	3.84215718364	;
JU604	7092.43546248	2.4332117091	;
JU605	7116.59604938	4.76698492284	;
JU606	7109.26953125	3.97516396605	;
JU607	7110.18644011	3.41728962241	;
JU608	7073.74610608	5.43866846611	;
JU609	7070.74819982	5.86837147182	;
JU610	7051.76583037	3.94681033752	;
JU611	7168.06363264	2.60095900606	;
JU612	7105.90471854	5.70895118053	;
JU613	7032.425	3.51925	;
JU614	7091.81274153	4.76774982987	;
JU615	7073.5742048	4.0989629192	;
JU616	7073.20765862	4.07136532607	;
JU617	7062.78301906	3.25894275695	;
JU618	7055.82734375	5.26434348958	;
JU619	7072.33610307	5.43058452697	;
JU620	7081.72741355	5.48148106305	;
JU621	7108.65811632	7.083566875	;
JU622	7104.96726756	3.33615257965	;
JU623	7072.15476466	3.23010032632	;
JU624	7062.39197032	4.82047380004	;
JU625	7054.38963203	3.78700246742	;
JU626	7076.48164223	3.42695500257	;
JU627	7108.61488947	4.41514521123	;
JU628	7149.21671198	4.00772994807	;
JU629	7105.6385668	2.87627588373	;
JU630	7116.58384763	3.25279602038	;
JU631	7120.73565713	3.67675449352	;
JU632	7118.48824653	3.38557236111	;
JU633	7123.70312795	3.94666641459	;
JU634	7101.06042751	3.65826157174	;
JU635	7147.20213343	5.72566372421	;
JU636	7157.09490741	4.58722530864	;
JU637	7119.29089256	1.2479613871	;
JU638	7131.86111111	5.39267901235	;
JU639	7122.54323102	2.68564432578	;
JU640	7075.32109371	3.34458808795	;
JU641	7109.22922502	4.65458929744	;
JU642	7065.17430923	2.48803480306	;
JU643	7085.51273148	3.75626803627	;
JU644	7068.92725146	3.70139512475	;
JU645	7064.40855815	4.47013197343	;
JU646	7102.21296296	2.41808847737	;
JU647	7068.78088009	3.0038472973	;
JU648	7096.67771196	3.14304378706	;
JU649	7129.3125	5.246875	;
JU650	7094.13518053	3.96665489095	;
JU651	7084.19494048	2.92476041667	;
JU652	7068.05087188	3.50063268583	;
JU653	7088.47670028	3.34217238959	;
JU654	7104.42361111	2.43613657407	;
JU655	7098.27982819	3.91912710532	;
JU656	7121.85210894	2.60459576924	;
JU657	7066.2154854	3.82004988052	;
JU658	7097.11217267	4.28787875658	;
JU659	7117.66053259	3.53907168926	;
JU660	7079.16955495	3.22546609691	;
JU661	7133.71417991	2.96818377577	;
JU662	7113.56222415	2.96931581533	;
JU663	7094.37960623	3.70185283909	;
JU664	7068.91563316	4.36212710646	;
JU665	7110.39579346	6.45219069266	;
JU666	7100.84891741	2.84225891258	;
JU667	7060.9448538	3.19043051094	;
JU668	7127.52013884	3.40350178566	;
JU669	7070.53032141	3.65351834854	;
JU670	7152.24111842	4.21223868012	;
JU671	7114.90761877	3.92810185783	;
JU672	7084.53412222	4.42426281668	;
JU673	7065.65040655	3.00269574863	;
JU674	7074.20980619	5.51784169986	;
JU675	7076.61326645	5.36419278844	;
JU676	7064.80643004	5.501065	;
JU677	7059.17142361	2.72022222222	;
JU678	7100.14287342	2.9568813248	;
JU679	7069.21136048	5.54373088785	;
JU680	7067.54386381	3.50021774691	;
JU681	7059.82678439	4.86235912767	;
JU682	7069.28299857	2.11432684169	;
JU683	7101.77503909	4.90284727366	;
JU684	7059.5933642	4.5334617284	;
JU685	7096.46281389	3.88451340621	;
JU686	7043.38643121	2.78668763021	;
JU687	7094.92091769	4.88874612892	;
JU688	7070.03596584	2.57826005182	;
JU689	7107.97752058	4.0717100823	;
JU690	7112.96071429	3.03020035962	;
JU691	7104.76296618	5.00605879115	;
JU692	7040.53	4.49802666667	;
JU693	7058.55970308	2.29400124289	;
JU694	7077.99949128	2.84335972984	;
JU695	7072.94196614	4.10165714709	;
JU696	7072.24203125	1.96050511806	;
JU697	7075.82062484	2.94818905997	;
JU698	7067.09499421	4.32293917824	;
JU699	7059.51737542	3.13627345073	;
JU700	7064.03061595	3.00812885994	;
JU701	7072.60290628	3.85944802338	;
JU702	7062.9992187	3.4289806111	;
JU703	7064.03061595	3.00812885994	;
JU704	7083.05721612	3.24837766104	;
JU705	7062.9992187	3.4289806111	;
JU706	7068.62266292	3.05814825121	;
JU707	7061.50403551	3.88281439579	;
JU708	7073.30729167	5.85089409722	;
JU709	7114.4532319	5.12270053498	;
JU710	7061.82149241	4.20909909033	;
JU711	7106.62022569	4.06137326389	;
JU712	7069.3890065	4.21149287921	;
JU713	7103.18206205	3.32431791367	;
JU714	7048.68627632	3.90089774609	;
JU715	7062.1131505	4.87959989918	;
JU716	7099.36111111	4.28967901235	;
JU717	7093.77043576	4.73411812391	;
JU718	7091.85997599	5.54730280521	;
JU719	7060.94492992	3.38977217038	;
JU720	7121.77489666	2.19211974757	;
JU721	7096.34327064	4.48559368789	;
JU722	7127.62391282	6.25774978771	;
JU723	7035.44777739	7.31267780402	;
JU724	7121.61374473	5.47852251147	;
JU725	7092.78740046	2.75192851852	;
JU726	7075.98955187	2.81211558342	;
JU727	7094.26559698	3.2632549887	;
JU728	7072.10961934	2.63476193416	;
JU729	7085.69963474	2.54090311313	;
JU730	7076.17258052	3.30223539707	;
JU731	7078.408578	1.33878772468	;
JU732	7072.83546632	3.16386816256	;
JU733	7098.5993287	2.52854462963	;
JU734	7089.10625394	2.44646534861	;
JU735	7085.74554028	3.08892134537	;
JU736	7083.18746267	2.87333027927	;
JU737	7140.14662972	3.17502171115	;
JU738	7081.04907798	4.77198273504	;
JU739	7099.51736111	3.29021527778	;
JU740	7127.83070773	4.60392086763	;
JU741	7055.82304213	3.17611167625	;
JU742	7071.39745907	4.56784161264	;
JU743	7070.09782009	3.04012477709	;
JU744	7089.54257837	2.64608956892	;
JU745	7064.41192705	2.75925430829	;
JU746	7033.94444444	3.72527674897	;
JU747	7108.29013437	3.8424939842	;
JU748	7109.68237912	4.38072730018	;
JU749	7061.15754503	2.26460289624	;
JU750	7160.65277481	3.79416152967	;
JU751	7147.20213343	5.72566372421	;
JU752	7134.1304784	5.11345138889	;
JU753	7143.40579282	6.22474229167	;
JU754	7067.30813802	4.59400365885	;
JU755	7099.41703328	5.22585787558	;
JU756	7079.13419194	5.68147426321	;
JU757	7030.17604167	4.36351782407	;
JU758	7131.2546224	4.75040924479	;
JU759	7143.61258441	4.58911704155	;
JU760	7142.12317975	2.7356134856	;
JU761	7129.7080628	4.18326460758	;
JU762	7085.66763018	0.773956521556	;
JU763	7076.32989462	3.58933705891	;
JU764	7137.41472545	4.67144387862	;
JU765	7060.88014403	4.36016213992	;
JU766	7083.75624381	4.32846097044	;
JU767	7078.5293517	3.93322695579	;
JU768	7085.03464328	3.65456446033	;
JU769	7092.3480649	4.50025965496	;
JU770	7072.07084284	4.69775883485	;
JU771	7041.99842854	5.68328874576	;
JU772	7075.48406633	4.0840260462	;
JU773	7079.41974184	5.27966438103	;
JU774	7041.99842854	5.68328874576	;
JU775	7012.78	5.81755333333	;
JU776	7021.59517222	5.6349377037	;
JU777	7152.46893004	4.89497962963	;
JU778	7083.99457385	5.19000987822	;
JU779	7138.00713306	6.36437112483	;
JU780	7090.43494942	4.77835806756	;
JU781	7100.73611111	4.05652777778	;
JU782	7113.84067215	4.63821145405	;
JU783	7104.74041495	3.65301536351	;
JU784	7084.38290306	3.34756323088	;
JU785	7064.42846293	3.17471762193	;
JU786	7089.81193479	2.58660474848	;
JU787	7121.33570584	5.30117659702	;
JU788	7093.61409954	148.832193893	;
JU789	7071.43280864	3.82045839506	;
JU790	7071.16371742	4.48055720165	;
JU791	7005.77553111	4.52211594444	;
JU792	7020.37643364	4.18858074479	;
JU793	7044.14425278	3.29916259259	;
JU794	7053.63530501	4.08257816548	;
JU795	7101.46015387	4.59832101804	;
JU796	7090.67816783	4.47282750578	;
JU797	7046.375	3.33522395833	;
JU798	7138.05743477	2.33402811867	;
JU799	7067.84093591	2.40780313073	;
JU800	7055.14399661	4.31237018794	;
JU801	7073.36668639	2.23280724451	;
JU802	7082.52581156	4.01868353909	;
JU803	7090.38177083	5.33458420139	;
JU804	7072.75704258	1.58546463976	;
JU805	7067.05536946	4.38368073526	;
JU806	7099.36111111	4.28967901235	;
JU807	7147.24738513	5.99486360315	;
JU808	7071.21213194	5.73207811111	;
JU809	7118.11006703	4.07011871914	;
JU810	7103.34125441	2.74670264844	;
JU811	7123.44669389	4.63533028978	;
JU812	7081.14271834	6.45426760402	;
JU813	7094.96095119	3.12108073771	;
JU814	7121.5775174	5.25582441085	;
JU815	7081.56260031	4.38796140529	;
JU816	7089.75736111	3.40308944444	;
JU817	7110.48829572	5.01227431134	;
JU818	7142.62291667	4.82310365226	;
JU819	7087.96837852	4.25639159524	;
JU820	7108.39046428	2.7161350695	;
JU821	7110.02423967	2.74360738723	;
JU822	7098.08808498	4.26438003319	;
JU823	7107.60458537	5.61673992415	;
JU824	7112.11024964	2.93812712204	;
JU825	7128.80985409	6.19047046396	;
JU826	7109.47052325	4.65907587244	;
JU827	7134.01727469	5.62400647881	;
JU828	7112.82310362	5.73307444362	;
JU829	7089.7026754	3.56872546445	;
JU830	7103.86560625	3.84732596038	;
JU831	7051.05729167	6.82177604167	;
JU832	7082.43406903	4.83278215439	;
JU833	7064.93914609	4.24686057613	;
JU834	7075.48343478	4.61899551403	;
JU835	7076.37184377	4.09401792695	;
JU836	7067.93897687	4.44844885766	;
JU837	7063.08630069	4.53037299756	;
JU838	7060.65397049	6.04074827778	;
JU839	7155.44801619	6.89556293777	;
JU840	7089.82714396	3.84149246032	;
JU841	7133.10203919	6.50052783755	;
JU842	7085.78282275	5.13219836806	;
JU843	7105.11500258	4.31619693993	;
JU844	7088.20820809	5.0598491458	;
JU845	7118.51591187	1.79866549824	;
JU846	7060.36433221	3.08635296918	;
JU847	7058.42019386	7.26216844209	;