[TITLE]
Generated synthetic network;

[JUNCTIONS]
;ID	Elev	Demand	Pattern
JU1	7138.62962963	4.93292592593	;
JU2	7068.79243827	4.34227983539	;
JU3	7069.296875	3.6776875	;
JU4	7075.04335938	5.10886913194	;
JU5	7100.56121399	5.72404320988	;
JU6	7080.09722222	5.32537654321	;
JU7	7098.49305556	3.93524305556	;
JU8	7113.22222222	3.4275	;
JU9	7096.93346189	5.30122259755	;
JU10	7080.31770833	3.95597608025	;
JU11	7070.84003906	5.11045800347	;
JU13	7120.62994799	5.38048731481	;
JU14	7101.66721965	3.39264207819	;
JU15	7059.54340506	2.46593233893	;
JU16	7086.96309457	5.40025414461	;
JU17	7076.02746989	6.15537677198	;
JU19	7100.35034285	1.89318055801	;
JU20	7105.34625	2.573975	;
JU21	7048.47800926	2.40388040123	;
JU22	7053.95266667	3.565424	;
JU23	7121.39253849	6.96855927201	;
JU24	7046.2285404	3.111811345	;
JU25	7064.78065794	2.93367319213	;
JU26	7060.08997896	2.8138642662	;
JU27	7065.33887217	2.90512041424	;
JU28	7061.63495159	2.3949462572	;
JU29	7050.71648399	2.62492222986	;
JU30	7081.5845218	2.89429063272	;
JU31	7079.14597949	2.88406187757	;
JU32	7066.27209227	5.64637739218	;
JU33	7050.20390528	5.17867154586	;
JU34	7065.96717607	5.33198652035	;
JU35	7064.15126385	4.93916936036	;
JU36	7074.62635489	4.07718207031	;
JU37	7075.87322811	6.3107524234	;
JU38	7106.58216904	4.79546359678	;
JU39	7088.04994718	5.93444928443	;
JU40	7114.06938979	5.53171206662	;
JU41	7108.49628327	1.75745423234	;
JU42	7060.58431626	3.75384112598	;
JU43	7143.55576924	2.34324901835	;
JU44	7066.38375827	3.51320334821	;
JU45	7088.83399656	3.69524759684	;
JU46	7084.25135052	4.58675944059	;
JU47	7078.83459201	5.19782021329	;
JU48	7093.43740493	2.93009088404	;
JU49	7095.45759135	3.03096245591	;
JU50	7101.72280385	2.00991069107	;
JU51	7092.55551651	2.01975816671	;
JU52	7099.11711463	2.54719973711	;
JU53	7084.4754869	4.19348074846	;
JU54	7061.65784455	1.36099493909	;
JU55	7101.82240442	3.02003743813	;
JU56	7085.68608382	5.15024250335	;
JU57	7094.18704493	4.41745257918	;
JU58	7104.8022788	3.74733615481	;
JU60	7080.63312609	3.74189299857	;
JU61	7096.63580247	6.98169012346	;
JU62	7095.18068283	2.74362436461	;
JU63	7081.47747815	4.03272054357	;
JU64	7056.70354998	6.04436182811	;
JU65	7082.50741092	3.15825833003	;
JU66	7064.95773309	2.85849397778	;
JU67	7071.03413832	2.37465	;
JU68	7111.12431713	5.28531703704	;
JU69	7139.42694665	5.89052474678	;
JU70	7095.40869254	4.21582221124	;
JU71	7091.10617284	1.33402222222	;
JU72	7169.33333333	5.27125	;
JU73	7077.63348958	4.01339807509	;
JU74	7080.25005494	3.49910043679	;
JU75	7113.3872084	4.34042138469	;
JU76	7084.16005198	4.02096693266	;
JU77	7092.95017361	4.22632515432	;
JU78	7034.51755658	3.18244669925	;
JU79	7062.01416171	3.19306212577	;
JU80	7096.12890625	2.86806586227	;
JU81	7064.16354167	3.8361164892	;
JU82	7078.31678721	4.00693754671	;
JU83	7106.50720486	2.15832960069	;
JU84	7077.50016276	2.48320491536	;
JU85	7117.04656489	3.27138150047	;
JU86	7062.00842818	3.31213207454	;
JU87	7107.29282407	4.65198611111	;
JU88	7111.70833333	3.31497530864	;
JU89	7113.08217593	2.73173726852	;
JU90	7103.59680427	3.78379446373	;
JU91	7062.2474596	3.64534670538	;
JU92	7058.54591667	1.83368533333	;
JU93	7050.5653302	2.94764634007	;
JU94	7072.29046664	3.52710650718	;
JU95	7049.27557366	2.22236013416	;
JU96	7097.76051161	4.6655741645	;
JU97	7073.8121875	4.04182819444	;
JU98	7112.11149673	4.35781182493	;
JU99	7051.45386111	1.40864044444	;
JU100	7065.33887217	2.90512041424	;
JU101	7113.25648823	2.67415090021	;
JU102	7093.49095703	3.74661912616	;
JU103	7056.3416606	2.81585625504	;
JU104	7078.64666992	5.1225622174	;
JU105	7109.14958681	91.8027334132	;
JU106	7083.43689667	4.01946367539	;
JU107	7086.05133333	2.36505666667	;
JU108	7107.05546348	4.3467261749	;
JU109	7050.48398468	3.69663332791	;
JU110	7089.39165296	3.46516511485	;
JU111	7082.0511757	4.14310610166	;
JU112	7150.84979902	7.58025752131	;
JU113	7071.15903899	4.27652772836	;
JU114	7104.02333524	6.27262492099	;
JU115	7067.31226852	4.96663935185	;
JU116	7098.28878472	2.63199177083	;
JU117	7088.38888889	2.768	;
JU118	7105.12117788	5.58874534251	;
JU119	7100.06040833	2.87934116667	;
JU120	7083.04708179	5.39140609568	;
JU121	7115.83068699	2.19464929978	;
JU122	7079.90358668	5.1660752572	;
JU123	7083.78071631	4.7639096965	;
JU124	7081.7917838	2.88935672037	;
JU125	7112.94234343	7.64351502486	;
JU126	7051.6559938	3.07721815321	;
JU127	7074.9375	3.49825555556	;
JU128	7046.82165919	4.92166860265	;
JU129	7086.68998411	4.10435430321	;
JU130	7105.42298981	6.53642261583	;
JU131	7100.45410673	3.81598399032	;
JU132	7096.60092593	4.6630537037	;
JU133	7063.48743699	4.14607880658	;
JU134	7067.18111158	3.07371261069	;
JU135	7075.79934157	3.37245834062	;
JU136	7050.6365141	4.67573121326	;
JU137	7076.00490741	2.51553523663	;
JU138	7094.00700422	4.22916322574	;
JU139	7072.89236111	5.22719618056	;
JU140	7124.88927331	3.99350074405	;
JU141	7079.24077418	5.44568870885	;
JU142	7090.58643519	4.4865582655	;
JU143	7120.67377387	2.14697254774	;
JU144	7106.52316521	3.34631500903	;
JU145	7067.79951666	4.64138601806	;
JU146	7079.35089478	5.60410689965	;
JU147	7068.99759122	4.81110275993	;
JU148	7109.07385596	2.64787139653	;
JU149	7068.52600309	4.4980304321	;
JU150	7069.13969136	4.05654933642	;
JU151	7073.80599131	4.67039243623	;
JU152	7070.00984927	5.93172115863	;
JU153	7082.83686343	4.73678	;
JU154	7065.74760857	4.99368059861	;
JU155	7054.7831058	4.33141722706	;
JU156	7164.38540638	0.428268339763	;
JU157	7108.6335013	6.41644817229	;
JU158	7076.69225972	3.08531777778	;
JU159	7080.3371875	3.80529041667	;
JU160	7067.36860879	3.50973939315	;
JU161	7095.18068283	2.74362436461	;
JU162	7081.37586864	2.11290905822	;
JU163	7107.57431584	1.68065063657	;
JU164	7093.38271605	6.50982469136	;
JU165	7088.3996092	2.90527697045	;
JU166	7098.86705922	3.13525320602	;
JU167	7068.86782022	7.09319685185	;
JU168	7058.0794415	3.20211321118	;
JU169	7085.31575587	5.74956375667	;
JU170	7080.09611907	4.94994256366	;
JU171	7122.01064043	5.04387123016	;
JU172	7108.89664824	3.24439224104	;
JU174	7095.46154785	1.60710373682	;
JU175	7090.37847222	2.87920023148	;
JU176	7136.57524126	3.35573865896	;
JU177	7109.38356239	1.66798070798	;
JU178	7098.76971965	3.43820045267	;
JU179	7059.99086614	3.80323983386	;
JU180	7056.18055556	2.52288888889	;
JU181	7056.39448061	4.17610559896	;
JU182	7082.60268365	4.46826269819	;
JU183	7085.31575587	5.74956375667	;
JU184	7088.31570326	3.84140580753	;
JU185	7061.40740741	4.6092590535	;
JU186	7137.32447531	1.61943339763	;
JU187	7077.45581276	3.69122139918	;
JU188	7102.7470978	1.7659435463	;
JU189	7083.5481713	2.75433310185	;
JU190	7067.68254758	7.1557304321	;
JU191	7056.01928369	6.46364521605	;
JU192	7072.09081023	3.69885142856	;
JU193	7075.85412037	4.2684582749	;
JU194	7074.21511632	4.63657366319	;
JU195	7114.62803765	1.36300874167	;
JU196	7073.49688279	1.58798109389	;
JU197	7075.77896825	3.77219444444	;
JU198	7074.42291293	3.70986406553	;
JU199	7073.55329698	2.97613859899	;
JU200	7087.53039923	3.00361385528	;
JU201	7073.71472849	3.61033354589	;
JU202	7078.7077381	4.13197453704	;
JU203	7079.81726931	3.78624248836	;
JU204	7080.52973315	3.46893857834	;
JU205	7087.37083333	3.75630416667	;
JU206	7096.49429012	6.85932098765	;
JU207	7066.88334636	4.98668626921	;
JU208	7094.89730421	6.27174932485	;
JU209	7073.05383552	1.81656581147	;
JU210	7071.82615323	3.70104487002	;
JU211	7078.92866512	4.81849874614	;
JU212	7065.36399691	2.37245713992	;
JU213	7118.61643361	4.81335010918	;
JU214	7072.50811612	3.86754160841	;
JU215	7100.29532953	3.21766402862	;
JU216	7090.47326022	4.24842340471	;
JU217	7097.81031356	4.5001233213	;
JU218	7079.40126858	3.23350654291	;
JU219	7119.6412963	3.52225925926	;
JU220	7071.39722222	3.39178944444	;
JU221	7085.92149397	4.57978717547	;
JU222	7123.07267898	3.71148071677	;
JU223	7039.77111213	4.71778898786	;
JU224	7049.18084796	4.65248824848	;
JU225	7087.36413401	3.29894075728	;
JU226	7082.32179638	2.91856642676	;
JU227	7082.53643464	4.26194214894	;
JU228	7069.6717535	3.05033564431	;
JU229	7085.44703518	5.44148470092	;
JU230	7113.04096817	3.85557889198	;
JU231	7089.70489459	3.63792642265	;
JU232	7071.2578436	3.71081582267	;
JU233	7028.66527778	5.29651788194	;
JU234	7099.27311632	5.78877725694	;
JU235	7118.42326573	1.19656843523	;
JU236	7081.71484324	2.26779313118	;
JU237	7132.28463292	3.58030461904	;
JU238	7090.91840575	3.93238756727	;
JU239	7108.16296296	2.56724074074	;
JU240	7145.96771918	6.41016071084	;
JU241	7096.29902818	4.20251288068	;
JU242	7089.31216931	1.54295943563	;
JU243	7072.46218637	6.30247415992	;
JU244	7035.88795408	3.86756853444	;
JU245	7072.45920602	3.28591518519	;
JU246	7185.64475198	5.1494364881	;
JU247	7099.17784217	3.40481466233	;
JU248	7083.66041715	5.61918994631	;
JU249	7096.52112181	3.67379038778	;
JU250	7084.25129429	5.10344852039	;
JU251	7125.09283716	3.95380109127	;
JU252	7143.59353282	3.8326226108	;
JU253	7049.17729753	4.63027367605	;
JU254	7116.49275425	5.03295246429	;
JU255	7059.98788108	2.3262066956	;
JU256	7075.91237557	5.88747638877	;
JU257	7090.42567194	3.44896411298	;
JU258	7121.34813329	1.78301745756	;
JU259	7105.74625986	3.76665782536	;
JU260	7077.67899306	2.46589814815	;
JU261	7094.41816667	1.37687233333	;
JU262	7067.41110524	2.04801459634	;
JU263	7107.50898042	5.58456305217	;
JU264	7060.20624391	5.64140144118	;
JU265	7071.9405787	3.25853412037	;
JU266	7063.70606167	3.9330210668	;
JU267	7095.4716813	2.76849233218	;
JU268	7042.525	5.6052	;
JU269	7053.06832981	5.12461669569	;
JU270	7086.05598148	3.32665777778	;
JU271	7091.28408289	2.04022222222	;
JU272	7091.61914501	2.2128867927	;
JU273	7099.31421131	2.664703125	;
JU274	7086.07839333	2.67622887731	;
JU275	7074.65856481	4.56013555556	;
JU276	7120.10458864	5.05164261429	;
JU277	7102.33022569	2.62285054167	;
JU278	7066.92300892	3.2722890727	;
JU279	7113.13800649	4.97387468245	;
JU280	7090.96127148	4.01076269194	;
JU281	7066.1213804	4.33002799846	;
JU282	7115.94683083	2.2748578287	;
JU283	7092.35127184	4.18323941904	;
JU284	7094.40892539	3.90851881539	;
JU285	7100.30596666	3.74593860896	;
JU286	7050.77851852	2.50322592593	;
JU287	7120.94407655	3.7526606705	;
JU288	7042.10823636	4.08716094462	;
JU289	7059.77380703	3.31630762901	;
JU290	7084.34375	2.853525	;
JU291	7073.05004967	4.14991477431	;
JU292	7145.15544676	4.86541054325	;
JU293	7105.02339801	2.59078473876	;
JU294	7071.3293859	3.33223559368	;
JU295	7073.23275515	3.35190128082	;
JU296	7133.55451389	1.6771875	;
JU297	7080.27499243	2.7496591637	;
JU298	7053.45973803	3.77555585077	;
JU299	7067.06617098	4.4093384198	;
JU300	7083.8041686	4.69144640818	;
JU301	7072.15	1.85792	;
JU302	7122.05951016	5.12986449882	;
JU303	7087.29844676	1.90451862269	;
JU304	7105.74625986	3.76665782536	;
JU305	7074.44635629	5.72660867942	;
JU306	7068.60179415	2.43400703704	;
JU307	7062.54210964	4.94002827176	;
JU308	7095.97188086	4.3813816705	;
JU309	7030.39948536	2.78662534575	;
JU310	7072.68486039	4.11527674479	;
JU311	7139.60163002	2.14964913087	;
JU312	7098.60597822	3.88811872988	;
JU313	7076.42036541	4.63914745079	;
JU314	7095.5710571	1.67648583333	;
JU315	7104.72220077	2.44694202207	;
JU316	7112.72466067	4.85304068893	;
JU317	7102.57540788	4.66686246718	;
JU318	7104.96690329	5.3988192475	;
JU319	7114.23931713	5.16297007055	;
JU320	7109.86737948	4.11146805188	;
JU321	7123.55658436	4.938881893	;
JU322	7142.44603093	6.12050094412	;
JU323	7096.7337963	4.20377037037	;
JU324	7061.77245737	3.71965783465	;
JU325	7081.55614404	5.69834286131	;
JU326	7101.16842544	4.34659518451	;
JU327	7077.43347361	1.79535440556	;
JU328	7107.56418582	3.53808342646	;
JU329	7099.30937724	5.11208137663	;
JU330	7142.79229292	3.56285715279	;
JU331	7133.52076926	2.99273213154	;
JU332	7099.27870325	3.81072950884	;
JU333	7079.52160208	3.73479299916	;
JU334	7120.74211501	4.69997072409	;
JU335	7112.30715368	4.1287817921	;
JU336	7094.75091955	3.77411095021	;
JU337	7097.43669905	3.43333741226	;
JU338	7150.57862362	4.10979409066	;
JU339	7075.82501068	5.25210035734	;
JU340	7045.78123804	4.78582433269	;
JU341	7107.16774879	4.51476868425	;
JU342	7134.99520313	4.12327186383	;
JU343	7154.02866251	2.14602502021	;
JU344	7158.83449087	2.20118766195	;
JU345	7138.84450617	0.541860740741	;
JU346	7111.34332931	1.64381899302	;
JU347	7137.60058706	2.14610631196	;
JU348	7114.23931713	5.16297007055	;
JU349	7098.32847394	6.29677802077	;
JU350	7079.62384259	3.73395925926	;
JU351	7077.94990105	5.15622973464	;
JU352	7094.43584556	3.97381907299	;
JU353	7112.84714894	1.78969640446	;
JU354	7068.03766012	2.46784685185	;
JU355	7083.99837565	2.65470208096	;
JU356	7088.87566736	2.73275229167	;
JU357	7149.24170525	6.70668287037	;
JU358	7028.46874444	2.30076355556	;
JU359	7099.81773672	4.57505112872	;
JU360	7069.8162242	2.30208934606	;
JU361	7117.36796513	2.16174981916	;
JU362	7077.25520833	4.40652291667	;
JU363	7081.21518519	2.59324177778	;
JU364	7059.43333333	0.1384	;
JU365	7134.44301824	1.59725207209	;
JU366	7105.91674915	3.52790793084	;
JU367	7091.22222222	3.22030555556	;
JU368	7070.60286281	2.49825277778	;
JU369	7077.24359434	2.39548855967	;
JU370	7100.1629485	4.16578522377	;
JU371	7116.68319227	1.69916482446	;
JU372	7114.5002531	4.62462123733	;
JU373	7095.75633434	5.34712190918	;
JU374	7108.19805556	6.09970791667	;
JU375	7126.01335803	1.3771343316	;
JU376	7102.375	0.0	;
JU377	7108.67916486	4.00880648872	;
JU378	7070.46177843	4.11352824797	;
JU379	7102.65323615	4.31219402836	;
JU380	7087.74375	6.12419375	;
JU381	7152.11639829	4.98840841688	;
JU382	7075.1518881	4.15411606338	;
JU383	7081.75577908	6.03351202257	;
JU384	7113.45125	2.35537986111	;
JU385	7078.71626984	4.51153333333	;
JU386	7111.69420139	5.37793111111	;
JU387	7026.53894033	0.709508744856	;
JU388	7040.73786866	3.29009659417	;
JU389	7105.64802713	3.14240992342	;
JU390	7126.97938272	1.92548534979	;
JU391	7122.02395769	2.12674442558	;
JU392	7100.2097689	4.13170430761	;
JU393	7131.59094149	4.84226760871	;
JU394	7094.59020188	6.78737514652	;
JU395	7131.94009774	5.32630609723	;
JU396	7095.42427758	4.51335119985	;
JU397	7082.82938422	2.6528248564	;
JU398	7123.92790234	4.50683005961	;
JU399	7090.12139757	1.66953660301	;
JU400	7078.59513889	2.5053287037	;
JU401	7056.45351529	2.27390010128	;
JU402	7122.33961066	6.03646916795	;
JU403	7107.70985826	3.76808909988	;
JU404	7118.47583333	6.40525819444	;
JU405	7083.27723597	4.77185899884	;
JU406	7057.7308588	5.18332285193	;
JU407	7076.89465021	3.79112517147	;
JU408	7063.55555556	7.58423611111	;
JU409	7085.24857639	3.33245392361	;
JU410	7100.7174647	74.3826806308	;
JU411	7082.14472297	3.68742093344	;
JU412	7074.0806713	5.00211087963	;
JU413	7089.37879536	3.92100999855	;
JU414	7089.87268519	6.71579398148	;
JU415	7147.66569608	4.51317469069	;
JU416	7067.34362875	2.69952372134	;
JU417	7063.36633832	3.04330689484	;
JU418	7111.43293557	2.45291307672	;
JU419	7059.91540258	4.08788268441	;
JU420	7071.40297206	2.94025988757	;
JU421	7095.21501421	2.62231295254	;
JU422	7086.80068458	2.37367396614	;
JU423	7070.75948095	4.94712569721	;
JU424	7092.09097456	4.16965655074	;
JU425	7041.27252978	5.57863219393	;
JU426	7071.14377182	3.22350504078	;
JU427	7066.22209198	3.12961332709	;
JU428	7097.6787492	3.89167988419	;
JU429	7106.98735894	1.79874555122	;
JU430	7129.43227736	3.88919771449	;
JU431	7093.62979167	2.95056386281	;
JU432	7071.77756944	4.09731559524	;
JU433	7070.78608339	6.15589414174	;
JU434	7076.26712699	2.25253646978	;
JU435	7090.2142233	4.22636054277	;
JU436	7089.6625	4.59648333333	;
JU437	7117.70320565	5.79271923065	;
JU438	7109.02462889	1.68965713126	;
JU439	7091.09668596	4.8309988966	;
JU440	7097.26955295	2.17292758247	;
JU441	7097.66461596	4.10487875106	;
JU442	7113.79573593	3.79542505364	;
JU443	7065.78472222	3.83704177778	;
JU444	7058.6917643	2.34436836626	;
JU445	7072.33210216	3.02376969259	;
JU446	7097.17874726	3.20193884222	;
JU447	7066.17369747	3.60446721531	;
JU448	7069.74723249	2.75744024687	;
JU449	7075.25634259	4.41429691523	;
JU450	7072.09081023	3.69885142856	;
JU451	7097.05417194	4.28907057964	;
JU452	7058.6917643	2.34436836626	;
JU453	7037.05694444	6.42650902778	;
JU454	7055.85069444	0.843474537037	;
JU455	7077.67899306	2.46589814815	;
JU456	7221.69475309	2.53410462963	;
JU457	7028.66527778	5.29651788194	;
JU458	7098.31835185	1.28100566667	;
JU459	7053.45973803	3.77555585077	;
JU460	7105.15488889	4.62265692593	;
JU461	7084.67554632	2.8825431923	;
JU462	7102.30139583	2.95676591667	;
JU463	7089.8888344	5.44759802237	;
JU464	7100.7754069	1.26475611979	;
JU465	7069.54346276	4.05659765793	;
JU466	7157.24166667	6.3643	;
JU467	7094.61523438	1.92106640625	;
JU468	7110.71824824	5.33179328146	;
JU469	7065.24058642	3.71593930041	;
JU470	7106.50283286	3.22859259506	;
JU471	7086.23569983	3.35497967858	;
JU472	7102.65616301	2.86637181197	;
JU473	7075.85316932	3.34226979866	;
JU474	7087.67268396	4.73876842318	;
JU475	7098.68392383	5.06213649341	;
JU476	7100.35100676	4.8811615666	;
JU477	7082.67708333	5.13908854167	;
JU478	7041.55760832	2.80473640706	;
JU479	7101.0981174	3.46041620551	;
JU480	7099.35261574	4.93518675926	;
JU481	7075.1274185	3.80655521798	;
JU482	7118.53755968	2.0506480951	;
JU483	7096.19315204	3.69366028968	;
JU484	7070.52035648	3.3510695	;
JU485	7101.96716435	4.13916864198	;
JU486	7068.53155864	5.7598337963	;
JU487	7090.89208395	1.08969138395	;
JU488	7126.97938272	1.92548534979	;
JU489	7080.27499243	2.7496591637	;
JU490	7084.13037109	2.14562597656	;
JU491	7078.2631863	3.01533621924	;
JU492	7067.24324691	3.0754911992	;
JU493	7085.61125741	3.43379390877	;
JU494	7074.2826044	2.6687812127	;
JU495	7072.36977546	3.55659391667	;
JU496	7050.69675926	4.26366666667	;
JU497	7047.1404321	4.19033333333	;
JU498	7071.26637731	4.17012569444	;
JU499	7078.60698483	1.87751947097	;
JU500	7064.47745768	0.650463360822	;
JU501	7056.80034722	0.596951388889	;
JU502	7059.55104167	2.80707083333	;
JU503	7119.1589265	4.88136979167	;
JU504	7099.19384028	5.79106479253	;
JU505	7057.53560609	2.18420185067	;
JU506	7069.43804528	3.09883494556	;
JU507	7102.45930556	2.87833166667	;
JU508	7106.08805556	3.53261944444	;
JU509	7100.80704877	2.68452274444	;
JU510	7102.52737847	3.42714388186	;
JU511	7100.58110288	2.72209814931	;
JU512	7106.37835712	3.01826458097	;
JU513	7101.65900826	2.35481791273	;
JU514	7106.37835712	3.01826458097	;
JU515	7096.99246974	1.67815195286	;
JU516	7096.48360561	3.57734842353	;
JU517	7100.0842627	4.06071491802	;
JU518	7127.04259259	3.68497777778	;
JU519	7105.74267506	2.49412700195	;
JU520	7141.37043744	5.07945783438	;
JU521	7141.37043744	5.07945783438	;
JU522	7150.84306723	5.82398054784	;
JU523	7133.55236626	4.00105987654	;
JU524	7120.88142963	4.73812060741	;
JU525	7142.51599587	5.64123311003	;
JU526	7130.40897013	4.7972361794	;
JU527	7143.5795981	4.92870626514	;
JU528	7066.01132223	5.09278097136	;
JU529	7101.79263334	2.86249691533	;
JU530	7081.5421412	4.2642484631	;
JU531	7074.67489004	2.45665431878	;
JU532	7092.47860909	2.9660517554	;
JU533	7137.03932425	0.435083771644	;
JU534	7056.95289352	6.49324444444	;
JU535	7093.11398283	4.12769843133	;
JU536	7119.19158451	2.05221018638	;
JU537	7081.78524002	2.38778496887	;
JU538	7105.9647745	3.25429034851	;
JU539	7123.26796553	6.75614293118	;
JU540	7130.5855216	6.53970087011	;
JU541	7081.01466812	5.68573360598	;
JU542	7103.82965035	3.85313916687	;
JU543	7110.47916667	6.36325	;
JU544	7057.92805367	2.1937031373	;
JU545	7108.31119792	3.77604947917	;
JU546	7106.59551358	3.64426919259	;
JU547	7081.89804051	3.22755060417	;
JU548	7157.43000157	5.65476890432	;
JU549	7069.81376566	2.33712983503	;
JU550	7057.24023438	3.17346484375	;
JU551	7094.03114509	5.28679140205	;
JU552	7069.82466001	3.98526109664	;
JU553	7059.87777501	5.269482829	;
JU554	7085.44008338	3.76524862238	;
JU555	7081.31516826	3.02358524841	;
JU556	7062.09465021	5.20326748971	;
JU557	7111.86907929	5.07822300437	;
JU558	7092.95978704	3.6173517037	;
JU559	7073.53664361	3.85462077662	;
JU560	7097.93798731	1.85963422979	;
JU561	7097.29100529	1.96869664903	;
JU562	7086.50198145	2.57317748333	;
JU563	7103.81241638	3.61683887847	;
JU564	7063.13232611	2.99896947996	;
JU565	7082.83799909	3.98609905223	;
JU566	7099.34800912	4.96311491335	;
JU567	7100.20839492	3.94007971608	;
JU568	7127.05760272	3.9245368107	;
JU569	7110.88422803	5.2794874584	;
JU570	7078.03496642	5.27982535277	;
JU571	7102.56301162	5.91111739112	;
JU572	7097.730643	5.53918434431	;
JU573	7100.0811583	4.55275796875	;
JU574	7101.13269597	3.88931799839	;
JU575	7110.50648061	2.31163642325	;
JU576	7123.12443176	4.29947350623	;
JU577	7092.44991639	2.32919624499	;
JU578	7070.61239345	2.26748037285	;
JU579	7076.8937749	2.37711486114	;
JU580	7110.81207652	2.33272542619	;
JU581	7020.2	7.5646	;
JU582	7145.80645391	3.72296047207	;
JU583	7057.69516291	2.71032504751	;
JU584	7051.05699289	3.80585368145	;
JU585	7114.76972349	2.3430270394	;
JU586	7094.33119536	3.89031532359	;
JU587	7120.69459068	1.50716706283	;
JU588	7167.88310185	3.69275460648	;
JU589	7129.47855761	2.01279252706	;
JU590	7093.46392486	2.18303986843	;
JU591	7095.45759135	3.03096245591	;
JU592	7140.67716049	1.65159220679	;
JU593	7105.93686343	2.67932488426	;
JU594	7079.81033549	5.30073048305	;
JU595	7066.38375827	3.51320334821	;
JU596	7101.82240442	3.02003743813	;
JU597	7079.32305106	4.44266401671	;
JU598	7097.69125681	3.27413817226	;
JU599	7111.23282019	5.71085495535	;
JU600	7065.0335375	2.20761419667	;
JU601	7048.01282398	4.39664067316	;
JU602	7074.13194444	2.47413888889	;
JU603	7095.42411111	5.30517341667	;
JU604	7119.72548912	6.41723389429	;
JU605	7084.91551629	5.95196964507	;
JU606	7093.87277205	1.69937648968	;
JU607	7070.11627083	4.41877715668	;
JU608	7115.87948495	3.24560129244	;
JU609	7078.91666667	3.0815	;
JU610	7066.38326389	3.87647344039	;
JU611	7081.02991806	4.09809686806	;
JU612	7107.07816548	4.24336661321	;
JU613	7132.5200842	2.5707602244	;
JU614	7179.38836325	5.01917283844	;
JU615	7063.19153956	6.04575234154	;
JU616	7081.58663209	2.97010459476	;
JU617	7103.03943789	5.61667110807	;
JU618	7103.63581113	3.76721245886	;
JU619	7115.04160639	4.05348793162	;
JU620	7089.02507716	2.5967038323	;
JU621	7127.64478128	4.60283036708	;
JU622	7136.24122109	4.14696161578	;
JU623	7072.15575668	2.44526810344	;
JU624	7132.3219794	5.51146688677	;
JU625	7105.35915742	3.59339596014	;
JU626	7093.82210648	2.39780111111	;
JU627	7092.51676795	3.62255599187	;
JU628	7120.08278951	5.07308714373	;
JU629	7090.58643519	4.4865582655	;
JU630	7075.45437032	3.69346124272	;
JU631	7119.62419182	4.99233374486	;
JU632	7065.33887217	2.90512041424	;
JU633	7072.80342361	0.860349344907	;
JU634	7075.95538657	1.27305834877	;
JU635	7104.49833848	3.83333004225	;
JU636	7139.30242789	5.90500266139	;
JU637	7088.87981204	2.46442239352	;
JU638	7091.39546309	4.31064447299	;
JU639	7092.9294329	4.68090818695	;
JU640	7099.82836283	5.07337234655	;
JU641	7032.64932485	2.94740848765	;
JU642	7106.3217298	5.27866007332	;
JU643	7093.71017076	4.29056332087	;
JU644	7093.97078287	3.73298427392	;
JU645	7083.97397767	4.19479410151	;
JU646	7096.05208333	3.35725	;
JU647	7050.53848167	4.19991936907	;
JU648	7109.29391791	3.1336195522	;
JU649	7101.70284133	2.44971972656	;
JU650	7081.82844936	2.79880854019	;
JU651	7100.70980421	6.27174932485	;
JU652	7068.80931713	1.62996529492	;
JU653	7089.32057231	4.41252471607	;
JU654	7065.70217186	2.25296055893	;
JU655	7121.05371704	2.51327482879	;
JU656	7057.63508224	3.11637514321	;
JU657	7125.65896348	4.27077711934	;
JU658	7094.64856289	2.25976122685	;
JU659	7125.20841637	1.34147292799	;
JU660	7034.43040779	3.03392065494	;
JU661	7119.91599833	2.87048819946	;
JU662	7083.32253472	1.02139219676	;
JU663	7136.06382035	8.17542648802	;
JU664	7125.63802083	0.6532890625	;
JU665	7066.37667438	3.05585781379	;
JU666	7068.67635774	5.50413575039	;
JU667	7109.21102358	3.77386078294	;
JU668	7070.79895512	4.43804537962	;
JU669	7085.34755799	5.67957703259	;
JU670	7116.00264559	2.96308474018	;
JU671	7061.66650415	4.19140878802	;
JU672	7060.48728757	2.73632548103	;
JU673	7108.86467014	6.81190804398	;
JU674	7054.40637682	2.59224158381	;
JU675	7071.3293859	3.33223559368	;
JU676	7107.86460234	2.00636432278	;
JU677	7071.2578436	3.71081582267	;
JU678	7102.75414013	2.72699708365	;
JU679	7079.04647487	3.31337050218	;
JU680	7076.95470575	2.82361638588	;
JU681	7117.68402635	2.61245534045	;
JU682	7103.50735424	3.30408937147	;
JU683	7104.51515894	3.70317465555	;
JU684	7148.71137275	4.78237181895	;
JU685	7105.43938611	4.66946047176	;
JU686	7071.62235754	3.99057998357	;
JU687	7092.06508667	4.66254249664	;
JU688	7105.99306031	7.90199720422	;
JU689	7109.94565085	5.00049057742	;
JU690	7080.85725309	6.14817438272	;
JU691	7116.52879516	4.52524189351	;
JU692	7083.62204475	3.58790511728	;
JU693	7086.96309457	5.40025414461	;
JU694	7110.20181836	7.41667641255	;
JU695	7065.31958302	3.90382006585	;
JU696	7074.43782226	3.41274134498	;
JU697	7078.80919579	2.82682419312	;
JU698	7096.73149967	4.05874388113	;
JU699	7077.61567565	4.10297534532	;
JU700	7091.12389704	3.6148516055	;
JU701	7100.88293068	4.41034742483	;
JU702	7059.69119306	4.78621982104	;
JU703	7074.43782226	3.41274134498	;
JU704	7097.5349878	4.41390000201	;
JU705	7099.08205939	4.04469558225	;
JU706	7054.55698686	6.25489937035	;
JU707	7054.33027778	1.80011597222	;
JU708	7130.40692515	1.47925289352	;
JU709	7077.26388889	5.62622222222	;
JU710	7147.61781093	1.59865949063	;
JU711	7094.2364798	3.05017095444	;
JU712	7121.44740481	4.46245613926	;
JU713	7108.24547121	2.41835699635	;
JU714	7082.58166846	4.26019063314	;
JU715	7061.65784455	1.36099493909	;
JU716	7049.96099172	3.31917164165	;
JU717	7076.15137004	3.08334228184	;
JU718	7080.30374267	3.0696735587	;
JU719	7098.25911047	6.88247319419	;
JU720	7083.22943053	2.40280029969	;
JU721	7082.26635659	2.61460743915	;
JU722	7061.02667364	3.77885169852	;
JU723	7070.38041549	2.90340282187	;
JU724	7084.53168651	3.1913167328	;
JU725	7064.35657675	3.12508660401	;
JU726	7114.7721731	3.45526255816	;
JU727	7114.15846182	3.47119883572	;
JU728	7083.15793981	3.386465	;
JU729	7063.22958143	2.26357881879	;
JU730	7088.00907022	2.88251660237	;
JU731	7075.1274185	3.80655521798	;
JU732	7091.74140605	4.44084631795	;
JU733	7090.60882523	1.82099662423	;
JU734	7063.48743699	4.14607880658	;
JU735	7108.91305572	3.11758575155	;
JU736	7106.26786458	3.49015241898	;
JU737	7093.97078287	3.73298427392	;
JU738	7054.80729167	4.53566666667	;
JU739	7092.68084491	5.38045659722	;
JU740	7074.79722222	6.13311481481	;
JU741	7087.73450039	3.50532708333	;
JU742	7080.08646219	4.47870603395	;
JU743	7111.10339506	7.79601851852	;
JU744	7037.05694444	6.42650902778	;
JU745	7034.4875	4.78820390625	;
JU746	7096.48360561	3.57734842353	;
JU747	7089.21359568	2.47033852366	;
JU748	7067.67519162	3.08976458698	;
JU749	7083.32253472	1.02139219676	;
JU750	7064.32785122	5.05520443636	;
JU751	7055.97509115	4.68725489583	;
JU752	7068.5356773	4.21418443023	;
JU753	7082.58166846	4.26019063314	;
JU754	7126.66107285	1.45919619502	;
JU755	7096.71591971	5.10350131816	;
JU756	7086.96512587	3.34965886381	;
JU757	7087.28316454	3.6570678169	;
JU758	7096.62936258	2.32653464359	;
JU759	7108.00357692	4.52889797086	;
JU760	7107.20572917	3.435984375	;
JU761	7134.19166667	4.68872888889	;
JU762	7120.97323727	4.38322305015	;
JU763	7176.5625	7.2053125	;
JU764	7108.41292921	5.25913682324	;
JU766	7112.87364165	4.67673362751	;
JU767	7116.3457403	5.0200862379	;
JU768	7106.14567645	3.28396789079	;
JU769	7106.93059971	2.83796624523	;
JU770	7064.94435895	4.31451858106	;
JU771	7094.03112095	2.9909908594	;
JU772	7078.82355636	3.6413305246	;
JU773	7071.80495983	1.68488509404	;
JU774	7111.34332931	1.64381899302	;
JU775	7117.60514088	4.8739276818	;
JU776	7053.67708333	2.67549305556	;
JU777	7092.95017361	4.22632515432	;
JU778	7124.20158179	3.8494304591	;
JU779	7103.48931427	4.46552151076	;
JU780	7129.12229663	3.9406264881	;
JU781	7126.77952325	3.95834335777	;
JU782	7102.08673472	2.51553858333	;
JU783	7087.18290376	3.81104033663	;
JU784	7141.03676543	3.00128963951	;
JU785	7051.59515336	5.45192682292	;
JU786	7047.83237311	4.78852200503	;
JU787	7098.38635815	6.43561359421	;
JU788	7045.41705761	3.22327071331	;
JU789	7098.46236389	1.97730312111	;
JU790	7082.05785698	3.0033167306	;
JU791	7117.91035324	6.70904511667	;
JU792	7106.44996637	3.98205815791	;
JU793	7084.46304142	3.219182365	;
JU794	7098.72384356	1.92152563897	;
JU795	7099.82906687	3.62532999841	;
JU796	7101.4829663	4.04079364754	;
JU797	7156.70226184	6.17467616292	;
JU798	7116.95969861	5.18011656807	;
JU799	7086.29489455	3.81952604595	;
JU800	7064.97565577	2.0127852921	;
JU801	7075.63676955	4.64718926955	;
JU802	7126.47206687	4.07683463443	;
JU803	7076.44181867	4.89140203611	;
JU804	7111.50111142	2.73960243333	;
JU805	7091.82033249	3.61870379868	;
JU806	7145.71089546	2.83894892148	;
JU807	7102.81266879	24.2025924479	;
JU808	7097.59215651	95.7618471453	;
JU809	7099.95909915	5.67326337632	;
JU810	7053.06692001	4.83707895623	;
JU811	7125.34163868	5.64893572528	;
JU812	7104.69052399	4.76903702127	;
JU813	7135.46176235	5.60700520234	;
JU814	7100.16451578	5.7165593618	;
JU815	7097.45682624	114.901177576	;
JU816	7103.58059956	45.8168805831	;
JU817	7091.81620679	2.98144978086	;
JU818	7093.2954388	3.16626579147	;
JU819	7089.55842194	4.01817966126	;
JU820	7092.16984289	4.32452177401	;
JU821	7057.12962963	6.07169907407	;
JU822	7071.18943287	1.74153888889	;
JU823	7072.29928823	5.39915675653	;
JU824	7098.74794906	3.25435305989	;
JU825	7100.30205085	3.57005777109	;
JU826	7098.93994145	4.30800520446	;
JU827	7056.88894198	2.22008208044	;
JU828	7049.96099172	3.31917164165	;
JU829	7048.55831528	4.21418534687	;
JU830	7080.30374267	3.0696735587	;
JU831	7067.45929516	1.32920661973	;
JU832	7070.68236218	4.47683301592	;
JU833	7101.08506094	3.87771280744	;
JU834	7039.33579765	5.53837053916	;
JU835	7125.51494043	2.06480360243	;
JU836	7074.59209925	2.07417690972	;
JU837	7090.50128507	3.6620216689	;
JU838	7130.25362634	12.292860862	;
JU839	7073.15885417	4.05513541667	;
JU840	7077.49965278	4.54864010417	;
JU841	7094.62395421	3.11653260199	;
JU842	7100.15352406	2.66026333189	;
JU843	7108.41292921	5.25913682324	;
JU844	7142.31944444	6.02584027778	;
JU845	7108.16296296	2.56724074074	;
JU846	7118.00303819	3.57849305556	;
JU847	7047.78172405	4.64725222063	;
JU848	7055.32266525	2.88068357009	;