[TITLE]
Generated synthetic network;

[JUNCTIONS]
;ID	Elev	Demand	Pattern
JU2	7032.721875	4.27872916667	;
JU3	7101.87793056	3.75800166667	;
JU4	7103.05197531	5.54202518519	;
JU5	7082.06728621	2.11302361648	;
JU6	7081.81231325	2.1175960675	;
JU7	7057.75203125	4.602939375	;
JU8	7037.94572917	4.04487979167	;
JU9	7046.87555556	3.98758972222	;
JU10	7022.69861111	4.18412777778	;
JU11	7017.14583333	4.61158333333	;
JU12	7009.74146091	3.89106111111	;
JU13	7049.67919271	2.48632145833	;
JU14	7068.69032922	3.83064104938	;
JU15	7118.33947362	2.13772093461	;
JU16	7073.25088785	3.55203004624	;
JU17	7131.16239228	2.86477711111	;
JU18	7124.52147364	4.86441658394	;
JU20	7078.11077468	3.89709806716	;
JU21	7068.96343316	4.59815771484	;
JU22	7123.24776389	5.41282854167	;
JU23	7063.32376302	5.05292304687	;
JU24	7110.86509916	5.58980401565	;
JU25	7057.85001293	2.86554036276	;
JU26	7065.9846498	1.46725581876	;
JU27	7027.06541667	3.38374444444	;
JU28	7107.08455178	175.141480153	;
JU29	7102.46141534	94.1149691887	;
JU30	7098.80132636	56.6876998966	;
JU31	7107.66917769	92.9631748832	;
JU32	7109.08709215	48.1420371215	;
JU33	7108.263508	38.754314821	;
JU34	7098.6827547	6.93277716696	;
JU35	7086.93123357	4.06370721113	;
JU36	7048.42089043	3.95402356267	;
JU37	7060.2864522	4.52988168017	;
JU38	7075.62847222	6.28086719209	;
JU39	7064.44953221	5.29003964235	;
JU40	7090.60102054	4.28835005742	;
JU41	7078.75307999	5.98313066946	;
JU42	7062.799015	4.09368800637	;
JU43	7062.48739933	4.35873562162	;
JU44	7087.16761574	3.14450011574	;
JU45	7123.11311265	6.07377829733	;
JU47	7104.72153935	4.47751097222	;
JU48	7042.04781173	4.04579802687	;
JU49	7144.83752636	5.71144697283	;
JU50	7063.04545795	2.97578560957	;
JU51	7092.49947131	5.68824924974	;
JU52	7071.37588027	2.89347845936	;
JU53	7083.54033131	5.20380009285	;
JU54	7092.88997728	3.7132683299	;
JU55	7109.07645392	4.51853903532	;
JU56	7088.95186007	3.15634870938	;
JU57	7090.84263117	3.88326664095	;
JU58	7076.84480846	1.65506533015	;
JU59	7087.66562122	3.7586182651	;
JU60	7087.86545139	3.5454037037	;
JU61	7108.17366466	1.79072470606	;
JU62	7058.59013717	4.17122269664	;
JU63	7109.39943134	3.11469542116	;
JU64	7086.84475982	2.42218888648	;
JU65	7079.41611111	3.76366666667	;
JU66	7103.44814876	5.52658270282	;
JU67	7119.01705628	1.67373195891	;
JU68	7104.93547123	3.2667194709	;
JU69	7056.45313727	3.71290964398	;
JU70	7064.08456245	2.24179527824	;
JU71	7125.51732353	4.36841757949	;
JU72	7127.4752085	2.74161945607	;
JU73	7083.89757903	2.48516666194	;
JU74	7123.88940894	3.92439120159	;
JU75	7095.39711934	1.1374155807	;
JU76	7090.81748978	5.03441063356	;
JU77	7109.75175347	2.28179618056	;
JU78	7086.12777435	3.07533803155	;
JU79	7103.35150444	2.80168095062	;
JU80	7088.51036632	3.78048902906	;
JU81	7116.69472222	1.9518875	;
JU82	7141.5074015	2.95718195933	;
JU83	7089.03472222	2.21734722222	;
JU84	7082.61586875	4.00373517824	;
JU85	7086.63160244	3.09122018403	;
JU86	7092.3301589	2.80495776789	;
JU87	7077.64872427	3.60345950609	;
JU88	7092.99273804	3.21970344493	;
JU89	7085.74046746	3.20378198945	;
JU90	7087.81394676	2.46999421296	;
JU91	7154.24305556	7.1040462963	;
JU92	7111.04513889	6.54318518519	;
JU93	7065.14561632	3.04414192708	;
JU94	7095.73371085	3.35696774089	;
JU95	7087.3190019	3.32918515796	;
JU96	7092.95473879	3.95033790943	;
JU97	7110.34857962	5.66845986395	;
JU98	7093.16317033	2.3369100598	;
JU99	7048.7558009	2.52055949797	;
JU100	7059.38425926	5.01140827546	;
JU101	7075.96696551	1.75192696607	;
JU102	7087.95785714	3.61712555556	;
JU103	7096.53366187	3.51971715228	;
JU104	7173.57966797	5.62972911024	;
JU105	7081.79341564	3.95651781893	;
JU106	7015.55654762	2.65995153061	;
JU107	7070.42780914	2.09717835505	;
JU108	7037.2554213	1.88427886111	;
JU109	7089.1926532	4.48170194083	;
JU110	7079.58607563	2.03688139023	;
JU111	7090.8234488	4.65065898951	;
JU112	7069.19453487	5.32265030382	;
JU113	7074.48107325	4.41163693022	;
JU114	7070.19634745	3.1601780739	;
JU115	7113.56387452	4.70261319838	;
JU116	7069.44007547	4.00141539207	;
JU117	7059.75255058	3.10505529835	;
JU118	7052.39939059	6.32727338435	;
JU119	7101.25265957	4.173929041	;
JU120	7123.87594907	5.02872417824	;
JU121	7050.38616381	2.33409446594	;
JU122	7119.74213562	4.82102603873	;
JU123	7085.36272358	4.39008001294	;
JU124	7085.53348214	4.77714880952	;
JU125	7055.93869582	5.08385530066	;
JU126	7161.47222222	7.27762037037	;
JU127	7100.88056641	1.27136621094	;
JU129	7093.99258951	5.76816844753	;
JU130	7114.32059381	3.68770307677	;
JU131	7116.69690278	3.09792005556	;
JU132	7066.08391204	4.3453125	;
JU133	7082.77832399	4.96490546568	;
JU134	7101.29322541	2.57127986389	;
JU135	7118.33947362	2.13772093461	;
JU136	7152.30843883	5.09627193649	;
JU137	7057.06933594	1.91801953125	;
JU138	7057.25575986	4.68029008233	;
JU139	7073.49400365	4.76239093668	;
JU140	7049.69201389	3.62452013889	;
JU141	7075.65662185	4.0701774477	;
JU142	7085.7377236	2.75962151925	;
JU143	7101.12375913	4.50230124688	;
JU144	7082.60498731	4.38362919612	;
JU145	7088.76785867	6.13834124374	;
JU146	7058.13870788	3.71376977226	;
JU147	7115.62418981	1.92551134259	;
JU148	7074.13455687	4.14552853875	;
JU149	7086.43569522	2.53746010802	;
JU150	7109.41561814	5.92508122574	;
JU151	7030.26697531	3.89635802469	;
JU152	7125.54853671	2.58851881944	;
JU153	7115.50391879	6.09550828573	;
JU154	7095.17752781	4.93973712384	;
JU155	7134.69522762	5.47148553902	;
JU156	7129.88337757	2.52920819271	;
JU157	7090.88611479	5.64889422399	;
JU158	7104.70748299	4.21965731293	;
JU159	7064.66532947	4.50789952708	;
JU160	7134.23263889	1.58620138889	;
JU161	7111.46961082	4.00325286458	;
JU162	7082.42586141	2.73119118411	;
JU163	7102.56366271	4.1421905652	;
JU164	7100.31741902	4.47236980706	;
JU165	7077.60769495	3.00047591869	;
JU166	7106.3792517	3.99947037982	;
JU167	7128.2478035	6.1998156893	;
JU168	7122.85410494	7.3420345679	;
JU169	7068.53466711	5.33677992725	;
JU170	7134.16111806	5.06954845833	;
JU171	7085.64559028	4.58646948302	;
JU172	7089.85204549	5.451813089	;
JU173	7140.47040995	6.05602098513	;
JU174	7084.60768015	3.51145364905	;
JU175	7179.79038333	2.95233555556	;
JU176	7076.66855724	1.8578111737	;
JU177	7072.44587597	5.63228075817	;
JU178	7081.48804547	5.78478434979	;
JU179	7140.20320451	2.61169757026	;
JU180	7106.84404468	4.3719108642	;
JU181	7107.96648681	4.02944428148	;
JU182	7070.42032777	2.89075016397	;
JU183	7083.00258948	3.39982528227	;
JU184	7103.0721059	3.31421692593	;
JU185	7081.48945789	3.70619984656	;
JU186	7085.76643519	2.92974814815	;
JU187	7081.72910873	2.85869148971	;
JU188	7083.00258948	3.39982528227	;
JU189	7088.09435576	4.00920484467	;
JU190	7124.32895251	8.17417503665	;
JU191	7150.71920484	5.46586916148	;
JU192	7105.20145833	4.78356486111	;
JU193	7056.8125	3.365375	;
JU194	7116.85416667	4.29921263228	;
JU195	7123.16857523	3.25948261343	;
JU196	7073.90463083	2.55459053359	;
JU197	7086.17113347	5.60497495872	;
JU198	7117.03705444	5.42749656381	;
JU199	7084.63194661	3.1951439974	;
JU200	7084.29893134	4.86718552327	;
JU201	7070.99954076	2.7812272933	;
JU202	7112.31746675	4.79902348767	;
JU203	7101.20915348	4.41089008236	;
JU204	7102.11568226	4.71144002862	;
JU205	7066.41770408	3.65230423479	;
JU206	7076.21678815	3.85000422224	;
JU207	7109.62757665	2.7472460689	;
JU208	7066.60285549	4.65267233032	;
JU209	7104.46823575	3.38467697013	;
JU210	7093.71572121	2.67726106308	;
JU211	7091.95370691	4.61196705705	;
JU212	7086.83325511	4.92549662688	;
JU213	7085.53621904	2.66843427132	;
JU214	7142.62027955	1.55856700608	;
JU215	7084.46074298	3.34446019652	;
JU216	7071.05396412	4.11356404321	;
JU217	7122.50805347	4.86316279167	;
JU218	7138.15817795	3.73777006944	;
JU219	7089.77609081	3.02652512968	;
JU220	7083.4526527	2.90592446152	;
JU221	7070.65371914	3.39122608025	;
JU222	7086.76983173	4.599594665	;
JU223	7067.18471354	4.95482791667	;
JU224	7074.31254825	3.6455368966	;
JU225	7119.74213562	4.82102603873	;
JU226	7095.28304577	2.21160213914	;
JU227	7065.29056453	2.89366427376	;
JU228	7093.95406648	4.85277887812	;
JU229	7097.40625	2.603125	;
JU230	7136.3268103	5.26706273264	;
JU231	7006.40516848	3.22503924214	;
JU232	7078.04019566	2.63619573772	;
JU233	7059.38425926	5.01140827546	;
JU234	7092.47122573	4.0441239368	;
JU235	7097.15951878	3.01969564879	;
JU236	7069.76801146	2.98956838624	;
JU237	7074.72771991	2.23468601852	;
JU238	7083.80521364	13.9021650405	;
JU239	7021.40103395	7.09569722222	;
JU240	7100.6045472	5.59722278676	;
JU241	7111.13763962	4.31217859431	;
JU242	7069.26965675	2.79398059237	;
JU243	7100.6045472	5.59722278676	;
JU244	7070.63738512	3.4972265775	;
JU245	7085.22935517	3.31982817797	;
JU246	7048.83039448	5.50473466435	;
JU247	7138.1009046	2.34832353332	;
JU248	7104.90938702	3.20762158284	;
JU249	7104.33086163	3.41597145062	;
JU250	7099.35018136	3.66534104032	;
JU251	7035.59047619	3.03684126984	;
JU252	7043.66396392	3.39783347243	;
JU253	7110.63321928	2.67312913243	;
JU254	7121.56281953	4.1392873151	;
JU255	7121.0417872	4.12011075059	;
JU256	7137.75572695	3.0932933898	;
JU257	7097.66040255	4.8412933083	;
JU258	7078.8606531	9.72006774475	;
JU259	7115.13592904	5.36496626748	;
JU260	7087.6524943	3.67498422214	;
JU261	7102.79198372	4.67613074723	;
JU262	7100.45259609	4.89607895984	;
JU263	7207.23703704	0.148962962963	;
JU264	7058.78903304	2.36191185885	;
JU265	7058.56537858	2.54624307989	;
JU266	7180.62555556	0.174286666667	;
JU267	7111.73782328	5.53127837015	;
JU268	7063.96764456	3.74531026077	;
JU269	7074.63183629	3.76557317243	;
JU270	7080.11636302	5.21631390157	;
JU271	7115.89675765	3.509409674	;
JU272	7084.75229994	6.81590749656	;
JU273	7089.20490398	6.79297736626	;
JU274	7066.83645833	4.80985833333	;
JU275	7123.94686995	2.07559555886	;
JU276	7057.51974346	2.33449753711	;
JU277	7120.58340495	5.84490105469	;
JU278	7087.55087989	6.18189516855	;
JU279	7052.07137346	4.07224344136	;
JU280	7119.4656292	4.91315291113	;
JU281	7107.31536265	2.6958304321	;
JU282	7097.56366351	4.76215371499	;
JU283	7114.81896487	5.57655481074	;
JU284	7093.84781595	5.79237322616	;
JU285	7149.24332284	2.74165421076	;
JU286	7157.18703701	3.75560217446	;
JU287	7105.46551442	30.0725214806	;
JU288	7059.51193963	4.12751609834	;
JU289	7069.45788176	5.27730908565	;
JU290	7124.32853974	5.84247119985	;
JU291	7079.25188995	5.1851827662	;
JU292	7111.81352716	4.10667404453	;
JU293	7022.43961806	4.35403611111	;
JU294	7041.012011	4.1805081713	;
JU295	7076.54146388	5.39228064354	;
JU296	7071.86259645	3.90037380658	;
JU297	7049.46305951	3.83447966898	;
JU298	7024.06788194	3.97396944444	;
JU299	7105.83545004	6.16826529192	;
JU300	7097.09204883	3.28191516671	;
JU301	7092.18902238	4.31734171198	;
JU302	7098.10273754	3.4622734927	;
JU303	7102.46348215	5.71130761214	;
JU304	7089.25545267	5.8366779321	;
JU305	7102.38179012	5.02166358025	;
JU306	7113.42477285	5.43558030718	;
JU307	7095.85946741	5.77399277212	;
JU308	7096.69723719	5.84040605453	;
JU309	7114.13225891	3.22231558738	;
JU310	7123.49309703	6.89726777392	;
JU311	7184.23267377	7.34225429377	;
JU312	7081.4512863	4.32199933266	;
JU313	7133.3227506	4.47695463198	;
JU314	7118.84722222	4.84772222222	;
JU315	7081.55829013	5.87610393887	;
JU316	7093.1314728	2.40372974537	;
JU317	7136.20492541	4.97634720118	;
JU318	7144.83752636	5.71144697283	;
JU319	7139.74323603	6.97107484831	;
JU320	7092.87774149	5.39462885811	;
JU321	7161.94039352	6.51003217593	;
JU322	7111.81352716	4.10667404453	;
JU323	7070.73437958	5.27998653356	;
JU324	7092.73997878	4.28439986626	;
JU325	7030.72561111	2.75183055556	;
JU326	7094.49559883	4.32281895871	;
JU327	7086.05407986	5.09625317644	;
JU328	7075.64672922	4.16490735057	;
JU329	7084.71168721	3.17297411169	;
JU330	7088.96070023	3.60056380208	;
JU331	7122.16215408	5.57038070312	;
JU332	7006.40516848	3.22503924214	;
JU333	7121.58591025	4.04039837245	;
JU334	7098.8511187	13.6804772029	;
JU335	7079.36651357	6.93944826401	;
JU336	7122.73802158	6.59230427522	;
JU337	7068.11884197	4.34607285397	;
JU338	7081.04249351	4.52214638557	;
JU339	7105.16070969	4.91008579236	;
JU340	7074.9425463	2.76687037037	;
JU341	7104.65737086	3.53779237397	;
JU342	7100.43951999	3.1795723648	;
JU343	7069.4125	1.84932190972	;
JU344	7103.12958333	2.89395709722	;
JU345	7115.80485564	3.32765985948	;
JU346	7100.76840449	3.57593982703	;
JU347	7128.1725	3.3516975	;
JU348	7057.7419515	2.8690461263	;
JU349	7104.88958333	2.88160868056	;
JU350	7117.79348859	3.97380337202	;
JU351	7086.5026319	3.1889557581	;
JU352	7095.92450589	2.14318273486	;
JU353	7078.25345448	1.943917084	;
JU354	7090.6050693	2.64565481643	;
JU355	7095.6243012	15.6975141078	;
JU356	7147.47611634	2.25624103338	;
JU357	7057.9750611	5.52179998087	;
JU358	7095.22057979	3.68065629348	;
JU359	7095.50965893	3.27857708891	;
JU360	7074.52246659	4.70484707242	;
JU361	7092.93197338	4.31766790123	;
JU362	7037.43835703	4.80792885114	;
JU363	7129.23860417	5.62220125	;
JU364	7100.59110916	3.1085877474	;
JU365	7133.75812463	2.64858838452	;
JU366	7113.28031534	2.9562329929	;
JU367	7101.8379759	3.74148933871	;
JU368	7113.08143928	6.23748362389	;
JU369	7101.74549622	3.75013213352	;
JU370	7096.46875	4.3426875	;
JU371	7039.28510802	3.40316280864	;
JU372	7080.24418757	4.39222800162	;
JU373	7053.51378472	2.31369611111	;
JU374	7105.17415776	3.90903478296	;
JU375	7045.62802083	6.43713789352	;
JU376	7045.57986111	1.219125	;
JU377	7033.18287037	3.59519444444	;
JU378	7132.01325819	4.91913959871	;
JU379	7073.10390625	4.03586319444	;
JU380	7120.42191358	4.36118784722	;
JU381	7101.66483612	3.16085686687	;
JU382	7077.50369017	2.77680105581	;
JU383	7132.64498457	3.79699200617	;
JU384	7108.84809631	3.28306531175	;
JU385	7091.8893103	3.15856273264	;
JU386	7145.83871408	2.50537320471	;
JU387	7068.30587261	4.22798402099	;
JU388	7106.4375	5.68208333333	;
JU389	7045.94458322	4.58423116969	;
JU390	7082.73554189	3.06377197657	;
JU391	7109.03117876	4.29118134465	;
JU392	7105.41805083	5.26547647392	;
JU393	7093.375	5.15495833333	;
JU394	7069.08637331	2.78744080075	;
JU395	7090.40558063	3.4991412037	;
JU396	7075.64907584	4.25289602242	;
JU397	7180.62555556	0.174286666667	;
JU398	7061.58518787	5.05389982887	;
JU399	7117.92330703	5.45207557599	;
JU400	7103.93146511	4.72234220517	;
JU401	7113.95275766	4.64056894866	;
JU402	7038.78424151	4.05029643627	;
JU403	7087.75969549	4.22859601395	;
JU404	7086.68809624	3.76364082855	;
JU405	7061.27886562	4.0990907664	;
JU406	7084.31324267	3.8950248939	;
JU407	7084.31324267	3.8950248939	;
JU408	7054.53576909	3.32181712588	;
JU409	7096.08733534	47.410093267	;
JU410	7127.5633027	3.89743417162	;
JU411	7108.19964203	3.63926589616	;
JU412	7092.56120765	3.82172945262	;
JU413	7102.33862434	5.95354761905	;
JU414	7064.23128336	5.27873805298	;
JU415	7101.64908213	3.08815653551	;
JU416	7056.69790278	4.07257611111	;
JU417	7052.35229539	1.47819735119	;
JU418	7080.29399143	4.07346517289	;
JU419	7137.9560562	3.64994664843	;
JU420	7103.66454556	5.41774703052	;
JU421	7165.18384651	36.8110088774	;
JU422	7098.75615226	3.6859287478	;
JU423	7075.51929398	2.23218342593	;
JU424	7143.34013629	5.30410007539	;
JU425	7089.36084105	2.16819822531	;
JU426	7053.3883693	2.32486726521	;
JU427	7104.38306327	2.92969651492	;
JU428	7100.16742338	66.2335332168	;
JU429	7091.02962963	3.58684444444	;
JU430	7088.20643532	3.03514654927	;
JU431	7090.9175563	3.7758193795	;
JU432	7066.97245337	3.75156451646	;
JU433	7095.14205034	3.35169279012	;
JU434	7070.47375672	3.31626658995	;
JU435	7134.46820522	5.63103253086	;
JU436	7144.50601164	2.45777060278	;
JU437	7144.09146196	1.70523503821	;
JU438	7077.13637318	4.94251910766	;
JU439	7126.08714313	8.131453768	;
JU440	7072.61264929	3.41415109172	;
JU441	7083.59866584	2.96292166818	;
JU442	7080.65258333	5.00556408333	;
JU443	7095.37088782	2.65984056298	;
JU444	7091.73736458	4.382758125	;
JU445	7084.67423657	2.55581712963	;
JU446	7100.14495853	1.90380307613	;
JU447	7108.65489503	2.94980702476	;
JU449	7213.65625	8.1704375	;
JU450	7096.89220914	1.89513307062	;
JU451	7108.30334414	4.63690289874	;
JU452	7075.51929398	2.23218342593	;
JU453	7103.37238281	4.03444656633	;
JU454	7131.16776036	4.59637860012	;
JU455	7125.05803743	4.25888109955	;
JU456	7006.40516848	3.22503924214	;
JU457	7097.06231481	3.72176208333	;
JU458	7077.96023691	4.03460025317	;
JU459	7062.96147612	3.26506204009	;
JU460	7047.89922187	4.32108923379	;
JU461	7055.70062628	4.63211620333	;
JU462	7067.51306258	3.10879523104	;
JU463	7073.37882647	3.52133998636	;
JU464	7085.11812624	3.20109850454	;
JU465	7102.41506484	3.03636528215	;
JU466	7091.13112374	4.16386257297	;
JU467	7121.33625	1.84639680556	;
JU468	7120.36944907	2.5747044213	;
JU469	7085.09466623	1.990443613	;
JU470	7087.11896909	3.44635101568	;
JU471	7098.82883046	4.61155474588	;
JU472	7049.94028858	5.02641708693	;
JU473	7115.14997995	2.71307983099	;
JU474	7124.04753231	6.83154430363	;
JU475	7082.41785383	3.30275742067	;
JU476	7048.87755023	3.82191511339	;
JU477	7060.45	4.18422530864	;
JU478	7119.09421191	2.83485577549	;
JU479	7066.1605011	3.50083090802	;
JU480	7047.71794562	2.45769650608	;
JU481	7075.05526846	2.66952297936	;
JU482	7077.83702138	5.29833968099	;
JU483	7068.37149161	4.04860069444	;
JU484	7089.31430981	3.07139725477	;
JU485	7040.38275784	1.3905691358	;
JU486	7036.08130787	2.13829861111	;
JU487	7075.05526846	2.66952297936	;
JU488	7111.36587251	7.84843403701	;
JU489	7112.67230903	3.11956423611	;
JU490	7089.63657407	3.70140925926	;
JU491	7079.39098152	5.54351116071	;
JU492	7086.51576968	3.79589449331	;
JU493	7082.49256301	5.62532912592	;
JU494	7118.69158606	3.99533603981	;
JU495	7094.35973884	3.8044415278	;
JU496	7118.69158606	3.99533603981	;
JU497	7094.35973884	3.8044415278	;
JU498	7081.85109238	3.32214333349	;
JU499	7075.60907451	3.23557619382	;
JU500	7062.62772109	3.63631068594	;
JU501	7071.17959646	3.23696825137	;
JU502	7080.88138558	4.00367129383	;
JU503	7078.28025493	3.48626771936	;
JU504	7066.02871315	4.10578000724	;
JU505	7055.51855757	0.660623100979	;
JU506	7046.90021878	0.296455578413	;
JU507	7077.86442588	1.43702999434	;
JU508	7077.86442588	1.43702999434	;
JU509	7046.62257409	4.2710615038	;
JU510	7108.16729681	2.60144020062	;
JU511	7110.46843042	3.71711464661	;
JU512	7091.63272014	4.40997184827	;
JU513	7083.20251608	2.77371514918	;
JU514	7079.23748925	2.77392323449	;
JU515	7085.60470418	3.30218435282	;
JU516	7085.33836173	4.56653259026	;
JU517	7106.70926961	4.08070323472	;
JU518	7079.38236073	2.64977203516	;
JU519	7091.22330339	2.80797544839	;
JU520	7077.8043971	2.078085363	;
JU521	7094.8147711	2.95905933666	;
JU522	7050.25604839	2.41858187317	;
JU523	7115.39894542	2.47062291055	;
JU524	7056.8631034	4.12530848874	;
JU525	7123.17203059	2.60066669277	;
JU526	7072.80200119	2.25336606139	;
JU527	7078.04583333	4.7949375	;
JU528	7088.5586985	2.07587397395	;
JU529	7100.70527946	6.1836078725	;
JU530	7063.17932581	6.76708172784	;
JU531	7116.15572778	4.69118508856	;
JU532	7127.81643549	4.55826055796	;
JU533	7069.4642392	3.08269054784	;
JU534	7071.60328695	3.99944137353	;
JU535	7055.23929688	4.5183290625	;
JU536	7048.0434375	2.82065847222	;
JU537	7058.33809159	4.05232901325	;
JU538	7085.90255058	2.99903410872	;
JU539	7080.10532407	5.527875	;
JU540	7093.77083333	3.5930308642	;
JU541	7119.3508012	4.62847983919	;
JU542	7020.2935774	3.8212672712	;
JU543	7088.5292475	4.84123280423	;
JU544	7103.35524817	30.3955160217	;
JU545	7103.69849399	3.92530926224	;
JU546	7087.39176827	1.77824817722	;
JU547	7100.88056641	1.27136621094	;
JU548	7061.63052425	2.37734817201	;
JU549	7087.03153875	2.69401764443	;
JU550	7081.05082222	3.28556965968	;
JU551	7085.55615429	5.62044318063	;
JU552	7093.8739217	5.64216217208	;
JU553	7087.857937	4.76479279069	;
JU554	7095.87152541	4.34232196884	;
JU555	7058.02984009	5.00416348999	;
JU556	7089.36084105	2.16819822531	;
JU557	7150.49135929	5.04852144097	;
JU558	7098.94081757	5.71586206241	;
JU559	7074.5017542	5.08837253328	;
JU560	7162.02642823	3.14502444444	;
JU561	7085.30600309	1.48690225309	;
JU562	7142.51522046	3.33998770163	;
JU563	7069.44208351	5.92790994722	;
JU564	7108.23980356	5.73134868184	;
JU565	7103.21327517	3.58922124091	;
JU566	7033.39351852	4.49303703704	;
JU567	7063.18801443	4.38465273531	;
JU568	7129.23503997	3.30253861638	;
JU569	7077.10505723	6.11953117284	;
JU570	7051.85357149	3.84159444605	;
JU571	7090.84263117	3.88326664095	;
JU572	7115.0695145	5.23508818681	;
JU573	7193.27444444	7.92951777778	;
JU574	7084.17490997	4.60950950694	;
JU575	7065.29056453	2.89366427376	;
JU576	7065.16408002	2.87956834351	;
JU577	7099.49764101	13.4858613443	;
JU578	7087.13713503	14.043461222	;
JU579	7088.8973269	5.17934278672	;
JU580	7094.26400371	2.19927208308	;
JU581	7106.18140451	3.46504676003	;
JU582	7032.38425926	2.30971296296	;
JU583	7108.30918178	1.85315954541	;
JU584	7073.04095438	2.32610211709	;
JU585	7034.51111111	4.19655555556	;
JU586	7111.16130454	4.84934136989	;
JU587	7126.87876358	2.94519558176	;
JU588	7072.31436914	3.0257248413	;
JU589	7098.39937831	3.36950818783	;
JU590	7087.21594457	2.73323099151	;
JU591	7094.24608661	4.97068105945	;
JU592	7072.97447938	5.21829048121	;
JU593	7127.87985412	4.22666698061	;
JU594	7101.40314686	5.14686516204	;
JU595	7057.35409737	3.30746930351	;
JU596	7060.35917129	5.65520929567	;
JU597	7070.20074703	3.63087625018	;
JU598	7118.58590398	4.26348006944	;
JU599	7063.14096809	4.57430313051	;
JU600	7084.97746914	3.29496589506	;
JU601	7095.86050336	98.7510486659	;
JU602	7077.6444393	5.27078708848	;
JU603	7097.09992205	4.60187615268	;
JU604	7088.37630805	25.2092953878	;
JU605	7096.59003142	2.4734309623	;
JU606	7108.56442817	6.18349568757	;
JU607	7104.29747961	4.69046993289	;
JU608	7095.6585114	26.7483665322	;
JU609	7137.02929063	5.61088492092	;
JU610	7071.353125	2.26608319444	;
JU611	7073.63410778	2.46145840428	;
JU612	7093.69773826	2.30150091423	;
JU613	7095.25301259	3.57019475624	;
JU614	7096.66920646	3.33797243643	;
JU615	7088.83631902	2.78321668484	;
JU616	7089.96907432	2.21154800745	;
JU617	7088.05660023	2.67684816273	;
JU618	7100.83392474	3.66548925743	;
JU619	7064.02145182	0.954232096354	;
JU620	7076.54146388	5.39228064354	;
JU621	7074.50793651	2.54402380952	;
JU622	7120.5754322	3.00186120177	;
JU623	7070.20987236	3.72474854542	;
JU624	7065.01270238	5.1615699263	;
JU625	7089.69507562	2.01591610593	;
JU626	7086.30460793	2.70254039041	;
JU627	7108.19563135	2.83295433394	;
JU628	7095.17752781	4.93973712384	;
JU629	7087.10216557	4.8514265169	;
JU630	7103.91721469	3.59970971339	;
JU631	7089.52981297	4.40846104545	;
JU632	7121.95697358	1.09763531708	;
JU633	7103.71301808	0.153178571429	;
JU634	7054.39005186	4.10292515821	;
JU635	7102.17320421	3.82867238137	;
JU636	7088.14598804	4.3006780015	;
JU637	7018.71141975	3.76513503086	;
JU638	7105.44132885	3.14007531491	;
JU639	7074.51134215	4.85966299133	;
JU640	7105.39661372	2.72840766213	;
JU641	7108.44867055	5.47642378249	;
JU642	7054.52205109	1.39258703042	;
JU643	7079.75909035	4.62643314166	;
JU644	7068.94980259	4.39232640478	;
JU645	7083.03203583	2.34800349923	;
JU646	7125.90616319	5.8298375	;
JU647	7082.61099537	3.61684068287	;
JU648	7111.02957228	123.114398052	;
JU649	7097.2723781	34.0859740714	;
JU650	7086.1994296	9.16743388697	;
JU651	7108.85340928	43.9414878312	;
JU652	7128.86743384	1.77404752458	;
JU653	7141.18856873	1.91083526688	;
JU654	7129.68896179	2.47512990222	;
JU655	7090.57168186	2.18761143404	;
JU656	7070.87479601	2.8549427478	;
JU657	7104.30674594	5.92057702715	;
JU658	7111.25867308	6.40059735822	;
JU659	7094.60760919	2.84594941044	;
JU660	7123.10446669	4.24345461311	;
JU661	7071.78194783	4.76646027468	;
JU662	7061.45086671	3.57730841899	;
JU663	7118.8993621	4.0331446875	;
JU664	7067.17877083	1.66151666667	;
JU665	7097.40625	2.603125	;
JU666	7091.8893103	3.15856273264	;
JU667	7125.33311039	4.33423556188	;
JU668	7093.07147	3.67178832924	;
JU669	7108.54706156	6.28443132507	;
JU670	7100.14495853	1.90380307613	;
JU671	7110.72244092	3.46642349963	;
JU672	7093.63680373	5.75457195207	;
JU673	7082.27978738	4.98123578189	;
JU674	7017.20982143	2.46078443878	;
JU675	7041.89962674	2.29799755859	;
JU676	7089.03472222	2.21734722222	;
JU677	7071.34651603	2.76262025103	;
JU678	7064.34375054	5.05892797623	;
JU679	7083.01849532	3.5954060247	;
JU680	7109.61249691	4.34850532099	;
JU681	7100.93168876	3.77866918658	;
JU682	7094.85017669	3.09558037852	;
JU683	7079.92848358	3.57612319842	;
JU684	7085.37357355	3.67563312229	;
JU685	7097.95386836	3.7441144155	;
JU686	7083.01849532	3.5954060247	;
JU687	7081.32377922	3.6042151864	;
JU688	7100.93168876	3.77866918658	;
JU689	7111.18987216	4.62050775894	;
JU690	7089.5951929	3.13838072531	;
JU691	7109.08654321	2.36880864198	;
JU692	7118.99846916	4.02979489818	;
JU693	7094.97976281	3.37970053124	;
JU694	7104.96218968	3.665663746	;
JU695	7084.60549089	4.27529767331	;
JU696	7032.50462963	1.66262962963	;
JU697	7105.2732446	3.49963483796	;
JU698	7123.63982189	4.05671479167	;
JU699	7051.48902062	1.97325692998	;
JU700	7117.33082997	4.35613686951	;
JU701	7098.36226813	28.6667758104	;
JU702	7137.09797251	2.66193806564	;
JU703	7072.28060523	4.12139185097	;
JU704	7081.25586265	3.4307832867	;
JU705	7051.64853395	4.4169117284	;
JU706	7096.85343444	3.88318416133	;
JU707	7089.36345655	3.44538523049	;
JU708	7057.87227262	5.77964050637	;
JU709	7076.73663407	5.8713160517	;
JU710	7114.18012539	4.95676196759	;
JU711	7106.6562534	4.91040982756	;
JU712	7130.3812963	3.0346924537	;
JU713	7052.34952171	1.76400636768	;
JU714	7076.54337671	7.32628618893	;
JU715	7098.12582737	3.80137047888	;
JU716	7061.9521608	4.29105634794	;
JU717	7039.30520994	3.4792269483	;
JU718	7043.44681954	1.95627329282	;
JU719	7032.83395182	0.954232096354	;
JU720	7064.02145182	0.954232096354	;
JU721	7113.98618827	244.658597222	;
JU722	7075.11213043	12.8873672258	;
JU723	7102.85127122	3.35656260899	;
JU724	7074.24818351	5.95343158436	;
JU725	7095.7750651	3.15030131173	;
JU726	7074.99419343	5.18787534361	;
JU727	7064.23128336	5.27873805298	;
JU728	7148.07916795	5.18835215664	;
JU729	7067.74728395	4.22463	;
JU730	7109.00229492	3.97325341797	;
JU731	7142.60662616	3.23083506944	;
JU732	7068.37149161	4.04860069444	;
JU733	7107.30245525	4.90451149236	;
JU734	7078.48593664	4.0795401929	;
JU735	7090.39490649	5.49067853767	;
JU736	7087.00872141	6.09866733405	;
JU737	7058.23072031	5.74393836608	;
JU738	7126.69075521	5.94166276042	;
JU739	7072.82794147	3.04642727656	;
JU740	7090.4539737	2.31978772242	;
JU741	7097.73202833	3.03316068892	;
JU742	7048.0604375	4.18804925	;
JU743	7095.68696502	3.01806740741	;
JU744	7085.48125074	3.20975893983	;
JU745	7078.25095351	4.3784313696	;
JU746	7057.58823053	4.35535805907	;
JU747	7036.96539756	4.82827269253	;
JU748	7081.32025208	3.2233879311	;
JU749	7060.85748218	3.65885982087	;
JU750	7059.07929812	3.35494610156	;
JU751	7076.46057434	3.35020804206	;
JU752	7134.31176215	2.45226517168	;
JU753	7103.92393266	2.85526700457	;
JU754	7077.33314043	3.93982523148	;
JU755	7072.25002797	2.1369991956	;
JU756	7038.78424151	4.05029643627	;
JU757	7047.384375	4.130825	;
JU758	7020.2935774	3.8212672712	;
JU759	7047.18257044	3.64506899057	;
JU760	7103.53135851	3.54223119213	;
JU761	7078.21631612	2.19086133017	;
JU762	7108.25163344	4.0795628429	;
JU763	7106.86037466	4.48986166277	;
JU764	7059.68291667	3.7188225	;
JU765	7098.80681118	5.21576794189	;
JU766	7121.3355	4.72045828571	;
JU767	7115.15290716	4.54209811661	;
JU768	7100.795744	2.43468471102	;
JU769	7108.67641679	3.30218404421	;
JU770	7100.07181477	3.63846342262	;
JU771	7108.30155927	3.56062605993	;
JU772	7099.07519493	3.31679031197	;
JU773	7052.83591406	2.16286203009	;
JU774	7130.56523872	3.32141235822	;
JU775	7020.89278628	2.04297171607	;
JU776	7058.71969029	5.34067648042	;
JU777	7081.55829013	5.87610393887	;
JU778	6999.18981481	4.0260212963	;
JU779	7106.08680556	4.15165972222	;
JU780	7096.00287344	5.15349391131	;
JU781	7106.38466427	4.69663414469	;
JU782	7111.76080136	3.97709725627	;
JU783	7135.99199674	4.31562958676	;
JU784	7048.15983013	3.52980865403	;
JU785	7114.62823833	4.72698148791	;
JU786	7102.66537221	5.01399524283	;
JU787	7089.35583934	3.77085311648	;
JU788	7061.40100412	5.28259259259	;
JU789	7084.77574863	3.4583084435	;
JU790	7105.87481024	3.61116930784	;
JU791	7110.82652859	3.39718371582	;
JU792	7106.69787543	2.76776825633	;
JU793	7084.86386483	5.59909131081	;
JU794	7052.27984178	4.34276444294	;
JU795	7087.94942213	4.13323600874	;
JU796	7110.87775864	3.40550797673	;
JU797	7081.14827008	4.34545474537	;
JU798	7083.79740234	5.81274490232	;
JU799	7067.28022657	5.21738000694	;
JU800	7078.54776207	5.41056711214	;
JU801	7073.40001389	2.44750976597	;
JU802	7076.70316565	3.21794824323	;
JU803	7115.49434214	6.01943808904	;
JU804	7125.58098958	1.78281359954	;
JU805	7126.6287037	2.49867037037	;
JU806	7094.26400371	2.19927208308	;
JU807	7056.11592186	4.52615839313	;
JU808	7106.10468632	3.91660563114	;
JU809	7100.84875207	1.86698563409	;
JU810	7098.23549107	5.55132440476	;
JU811	7048.00888166	4.20421603553	;
JU812	7083.94119744	6.23261772946	;
JU813	7091.93098198	3.29831610445	;
JU814	7130.05654211	3.44468777557	;
JU815	7093.63039313	3.42929761097	;
JU816	7096.53366187	3.51971715228	;
JU817	7133.7137406	1.95078081597	;
JU818	7092.53743056	2.6846657963	;
JU819	7099.18055291	3.99792565873	;
JU820	7102.42815853	1.93208736589	;
JU821	7059.43088693	4.31070273598	;
JU822	7109.40808902	2.39052125358	;
JU823	7055.24986923	4.89606312345	;
JU824	7039.29867392	3.18007866481	;
JU825	7082.0713998	3.6333420409	;
JU826	7089.38483224	3.43535464151	;
JU827	7074.99630747	3.30226105472	;
JU828	7098.33754181	4.93594413484	;
JU829	7139.01827263	3.52906055045	;
JU830	7129.58414292	4.50903736617	;
JU831	7073.52486366	1.90564312319	;
JU832	7094.52174558	2.02890673874	;
JU833	7068.42538192	2.69604338533	;
JU834	7044.16863812	3.47444182099	;
JU835	7064.7839037	2.40259948091	;
JU836	7064.64105457	4.39050457958	;
JU837	7045.95164507	4.21015818424	;
JU838	7069.13596002	2.60007295706	;
JU839	7076.4007971	6.24460134929	;
JU840	7095.24399005	7.26970156673	;
JU841	7151.62397119	7.61529076646	;
JU842	7161.94039352	6.51003217593	;
JU843	7084.57192021	1.31340529092	;
JU844	7094.34708933	4.19049546389	;
JU845	7120.06778243	4.5674258656	;
JU846	7079.09514819	4.46888771245	;
JU847	7082.55666225	2.50360604865	;