[TITLE]
Generated synthetic network;

[JUNCTIONS]
;ID	Elev	Demand	Pattern
JU1	7157.19688333	7.20840933333	;
JU3	7097.55883333	3.14513044444	;
JU4	7109.26459991	4.08656539037	;
JU5	7085.2205932	3.61019809644	;
JU6	7102.92094996	4.31801498677	;
JU7	7096.96944444	4.20260082305	;
JU8	7072.554	3.72699481481	;
JU9	7066.66924691	4.35017341564	;
JU10	7090.26726852	4.89829989712	;
JU11	7083.10136574	4.14643564815	;
JU12	7117.6547619	3.44103968254	;
JU13	7108.49152778	3.79513981481	;
JU14	7113.67960913	3.64142051587	;
JU15	7087.70789548	5.33906460198	;
JU16	7072.28160677	1.5193341059	;
JU17	7054.28699345	2.51369482973	;
JU18	7112.416809	3.4167776588	;
JU19	7129.46670012	2.75851783994	;
JU20	7070.59760684	7.02160069239	;
JU21	7108.28943673	5.21673620756	;
JU22	7089.73950617	4.44971759259	;
JU23	7088.50059059	5.01180438029	;
JU24	7077.79265171	3.7440921165	;
JU25	7099.75082493	5.03509404578	;
JU26	7079.87404541	5.33896010047	;
JU27	7040.82335069	2.4415318287	;
JU28	7089.32346053	5.75279130101	;
JU29	7096.06392674	6.14668489325	;
JU30	7083.76204479	6.01670622511	;
JU31	7074.49887876	6.04619871238	;
JU32	7080.95048466	5.7712759211	;
JU33	7073.67399641	5.99837842627	;
JU34	7078.81148159	5.89747653378	;
JU35	7075.3153943	6.17340773505	;
JU36	7051.37273477	4.07781314872	;
JU37	7049.31212777	3.98708526806	;
JU38	7068.39085525	4.68468856481	;
JU39	7086.21014116	4.62550359921	;
JU40	7073.91832443	4.29018660288	;
JU41	7062.0180535	5.29287695473	;
JU42	7076.5395679	4.82561419753	;
JU43	7067.10518519	4.96271851852	;
JU44	7068.58435892	3.27022148277	;
JU45	7112.3882718	3.933830554	;
JU46	7057.7649237	4.1701864369	;
JU47	7065.44325415	3.85343834825	;
JU48	7078.4359127	3.21201071429	;
JU49	7101.39085423	4.4051247313	;
JU50	7092.47174156	5.3271605582	;
JU51	7081.11028807	6.56662864198	;
JU52	7122.95296569	3.81939992407	;
JU53	7122.99691463	3.70500627345	;
JU54	7081.16065975	5.12107751368	;
JU55	7093.67736806	4.87342844444	;
JU56	7094.53746284	3.78994386129	;
JU57	7068.59527103	6.5104877001	;
JU58	7024.17625	5.91928	;
JU59	7093.99942371	4.33960941781	;
JU60	7076.2505454	4.58471381344	;
JU61	7077.57396998	5.20840409398	;
JU62	7056.12304688	4.21288489583	;
JU63	7091.07961024	4.96611270498	;
JU64	7099.09038357	5.22259501959	;
JU65	7089.88163138	1.86658601687	;
JU66	7100.78019162	3.52572189558	;
JU67	7057.10337422	4.68565624853	;
JU68	7056.55555556	3.79516666667	;
JU69	7111.45371192	3.90204406613	;
JU70	7091.84320314	3.34976597485	;
JU71	7067.85058449	3.91574515818	;
JU72	7036.97272809	4.2965916627	;
JU73	7111.9181938	6.19956754758	;
JU74	7111.175999	3.17102464793	;
JU75	7063.9757927	2.22470212191	;
JU76	7079.77621252	6.81659487066	;
JU77	7089.73903302	5.52241487222	;
JU78	7109.63109567	3.00233233323	;
JU79	7079.32774831	4.66882170115	;
JU80	7068.39085525	4.68468856481	;
JU81	7130.48526476	3.66696809896	;
JU82	7069.14397719	5.48583125429	;
JU83	7099.19986979	5.81870800781	;
JU84	7148.11205808	4.23578603199	;
JU85	7094.11239342	2.45406853926	;
JU86	7059.60038969	2.54474124484	;
JU87	7055.98072888	4.54191503233	;
JU88	7093.31219616	3.54244425041	;
JU89	7139.79100432	4.60647519004	;
JU90	7072.88265336	4.5496254919	;
JU91	7088.18518519	3.79855555556	;
JU92	7107.37855565	5.61182812782	;
JU93	7080.90592379	5.09788046117	;
JU94	7130.38342758	5.5558547619	;
JU95	7062.73240741	2.64602530864	;
JU96	7093.13614941	4.53954246571	;
JU97	7120.37962963	2.69351851852	;
JU98	7086.99242627	2.07451159465	;
JU99	7102.49238137	7.86976847608	;
JU100	7101.7447475	6.19925045325	;
JU101	7115.33333333	1.34066666667	;
JU102	7103.19132234	7.59544794367	;
JU103	7096.23243804	3.95563289513	;
JU104	7110.24296169	3.88917539047	;
JU105	7098.28360855	4.40050402454	;
JU106	7089.670478	4.50972376788	;
JU107	7111.45495369	1.71933933514	;
JU108	7053.56452546	1.99285648148	;
JU109	7091.39610934	5.29348493591	;
JU110	7100.67511574	2.21356435185	;
JU111	7063.13371888	2.34251320904	;
JU112	7062.86568783	4.34496315063	;
JU113	7032.72410301	2.29881847994	;
JU114	7087.29168829	4.12542412685	;
JU115	7115.96746935	5.16826012999	;
JU116	7129.65805772	7.10935656304	;
JU117	7060.99128765	2.45092498765	;
JU118	7058.29166667	5.0075625	;
JU119	7111.94787037	2.90932340278	;
JU120	7048.45674913	5.38186774691	;
JU121	7090.74945807	5.29848495584	;
JU122	7104.85225057	3.39464789872	;
JU123	7065.68428832	2.1391980517	;
JU124	7113.56001323	5.35838130466	;
JU125	7150.32937886	4.17493028549	;
JU126	7139.788904	3.99850857853	;
JU127	7051.82620902	5.2427494625	;
JU128	7092.12124998	3.71954037005	;
JU129	7005.6238135	3.74461703916	;
JU130	7095.97796809	2.3837785964	;
JU131	7084.26052469	4.74236055401	;
JU132	7097.0774177	6.02055941358	;
JU133	7049.375	5.78111111111	;
JU134	7060.73611111	3.9105	;
JU135	7119.55957948	5.51362368827	;
JU136	7137.38128258	6.60387918381	;
JU137	7089.65682375	3.758555131	;
JU138	7095.42743769	4.73228741926	;
JU139	7104.03596582	1.18242080933	;
JU140	7085.20018519	3.18855222222	;
JU141	7125.51247825	3.41845691486	;
JU142	7085.18011188	2.39983143004	;
JU143	7076.60235779	4.23158684022	;
JU144	7076.27277604	2.06082189236	;
JU145	7115.25207475	3.53031120474	;
JU146	7114.53056503	3.68769998714	;
JU147	7100.66509295	6.42447522719	;
JU148	7102.86767696	4.34302642376	;
JU149	7080.74081274	4.15432363515	;
JU150	7068.61524108	4.92699325446	;
JU151	7103.63309932	5.00081847443	;
JU152	7060.439886	4.2872326196	;
JU153	7055.8903495	4.18335831576	;
JU154	7060.37348244	4.5679816288	;
JU155	7073.29754519	4.78197658213	;
JU156	7062.76015898	5.16909242627	;
JU157	7046.08890559	4.24653046158	;
JU158	7060.09609763	3.74057854271	;
JU159	7044.17083141	4.60091555951	;
JU160	7079.09176939	3.02893255262	;
JU161	7113.19683556	4.73896465878	;
JU162	7084.14384921	4.36050132275	;
JU163	7082.46201799	4.36157729456	;
JU164	7061.90277778	2.98145833333	;
JU165	7080.96525046	2.73370566857	;
JU166	7112.21068081	1.61427951145	;
JU167	7097.61009253	4.73375834707	;
JU168	7075.30843164	3.57355184259	;
JU169	7065.39547164	5.88271100984	;
JU170	7075.32830761	4.9553632356	;
JU171	7092.9216821	2.95329282407	;
JU172	7078.35696094	2.71783417728	;
JU173	7079.02400479	5.41094616612	;
JU174	7070.78055122	5.3029965625	;
JU175	7150.87226252	4.6325476519	;
JU176	7051.90976212	4.70266317926	;
JU177	7099.03952332	3.80784062071	;
JU178	7149.35738823	2.67938656343	;
JU179	7056.90969059	1.70481661587	;
JU180	7103.89611198	3.96272574354	;
JU181	7015.16435185	3.37265277778	;
JU182	7025.99528464	2.51511471193	;
JU183	7072.78804977	7.30879197531	;
JU184	7087.58868648	5.29918305823	;
JU185	7151.58514853	4.08863191204	;
JU186	7069.92377508	6.20769555556	;
JU187	7084.25525463	3.85343671296	;
JU188	7098.29776235	5.09927989198	;
JU189	7070.16460905	6.1504462963	;
JU190	7085.59713992	4.14745499769	;
JU191	7061.74181207	4.23017890866	;
JU192	7044.29270924	5.93375405346	;
JU193	7034.69794767	3.46542478671	;
JU194	7060.89291667	4.40572291667	;
JU195	7066.04701012	4.32851084801	;
JU196	7080.9109094	3.62897970524	;
JU197	7062.07585075	3.33056678578	;
JU198	7064.84073471	5.73869497508	;
JU199	7070.2858648	4.52076054507	;
JU200	7067.39037852	3.89173058528	;
JU201	7080.9109094	3.62897970524	;
JU202	7130.57528384	4.80532157738	;
JU203	7079.59339779	4.44085916281	;
JU204	7086.89759744	2.87726699282	;
JU205	7056.50694444	5.37011111111	;
JU206	7128.21066899	3.24732873636	;
JU207	7135.37731977	4.82362902527	;
JU208	7157.94212963	6.51780416667	;
JU209	7121.5372947	3.64419964685	;
JU210	7080.68718171	2.79501810828	;
JU211	7047.8125	4.022	;
JU212	7046.205657	3.24088513775	;
JU213	7060.5	4.82233333333	;
JU214	7129.20740741	4.65567407407	;
JU215	7076.35204813	1.91494829379	;
JU216	7074.15578241	2.56858869522	;
JU217	7083.41935098	2.58231612905	;
JU218	7102.97550926	2.3322529784	;
JU219	7161.11705974	5.80428067563	;
JU220	7055.79916667	4.59626537037	;
JU221	7092.24387731	1.30497134645	;
JU222	7084.31020267	5.28034243776	;
JU223	7095.86020642	5.37802101933	;
JU224	7081.0558783	3.98223978306	;
JU225	7059.73940425	3.49998886905	;
JU226	7093.53646585	4.62158366131	;
JU227	7089.34213268	4.75815540515	;
JU228	7046.52076282	4.0320947698	;
JU229	7051.2941358	5.0935590535	;
JU230	7066.31619591	5.6841345489	;
JU231	7083.984375	6.641625	;
JU232	7049.63287294	2.2930464429	;
JU233	7063.12854038	4.59852434189	;
JU234	7066.16293537	5.59005030256	;
JU235	7083.40291358	4.06208080247	;
JU236	7154.42640187	1.31555123094	;
JU237	7106.11359739	6.36402649177	;
JU238	7151.60363005	4.06320419823	;
JU239	7069.18326729	2.73583128379	;
JU240	7050.84223864	0.829985067695	;
JU241	7085.11486626	3.85193569959	;
JU242	7094.71896068	4.21012866211	;
JU243	7101.27344683	4.27267186602	;
JU244	7061.97966392	5.3500517284	;
JU245	7093.96461489	3.02610023507	;
JU246	7072.56164159	4.51373605324	;
JU247	7077.83798148	6.64354968519	;
JU248	7061.92303819	3.82115116169	;
JU249	7044.47758343	3.54316784392	;
JU250	7089.84734235	4.60754899534	;
JU251	7118.97502636	4.67062462529	;
JU252	7174.00636987	4.48591822421	;
JU253	7125.44817763	3.95078997066	;
JU254	7090.6963347	3.32052525262	;
JU255	7083.8125	2.51290277778	;
JU256	7081.64155655	6.56306496421	;
JU257	7049.28147859	3.65481143519	;
JU258	7089.25285494	4.34611111111	;
JU259	7119.95561584	4.99387400656	;
JU260	7027.13939086	1.97735751147	;
JU261	7087.94741555	5.13247459705	;
JU262	7121.37389378	3.79375097311	;
JU263	7043.71388889	2.70847569444	;
JU264	7112.92498912	4.93342938841	;
JU265	7058.97909224	3.18647996699	;
JU266	7075.90826536	4.58457638399	;
JU267	7049.93402778	3.47876388889	;
JU268	7086.29878867	4.65007434842	;
JU269	7040.52460038	4.40554078456	;
JU270	7051.38125652	5.4179420439	;
JU271	7083.42512275	4.31107241342	;
JU272	7042.24016204	4.47997228009	;
JU273	7089.53940544	3.486796875	;
JU274	7109.44891975	3.32096234568	;
JU275	7100.94922129	3.5591517622	;
JU276	7146.32407407	5.44353703704	;
JU277	7132.35439202	4.82890494317	;
JU278	7115.99228395	5.55145987654	;
JU279	7110.14710434	4.966255637	;
JU280	7097.98468715	3.33244545755	;
JU281	7112.12856813	6.32085147114	;
JU282	7098.48550513	3.37163079696	;
JU283	7074.08062281	2.415032961	;
JU284	7041.73125	2.664575	;
JU285	7091.66190759	5.47972008633	;
JU286	7105.67710232	3.83674961344	;
JU287	7146.50507826	5.97638473765	;
JU288	7066.00842299	5.07617558727	;
JU289	7158.56424935	4.83093997997	;
JU290	7104.17854142	2.68656325652	;
JU291	7101.38310083	3.0912011133	;
JU292	7099.90680578	2.08787057088	;
JU293	7073.16388889	5.63578101852	;
JU294	7059.67042493	4.98091515873	;
JU295	7104.92691171	5.3281514989	;
JU296	7095.23519659	4.04236744027	;
JU297	7099.56047454	6.00432690972	;
JU298	7079.39556294	5.41117602646	;
JU299	7076.55107992	4.7315514863	;
JU301	7084.46504238	4.61579561258	;
JU302	7158.19670782	3.30025308642	;
JU303	7126.81597222	6.94047916667	;
JU304	7097.06399496	4.72271644229	;
JU305	7084.78611785	5.41497085059	;
JU307	7125.92277518	2.36566205968	;
JU308	7111.98725293	3.32873991571	;
JU309	7061.89775174	6.00740128125	;
JU310	7069.82149195	3.56596698633	;
JU311	7063.46018422	2.99574394419	;
JU312	7063.46018422	2.99574394419	;
JU313	7124.71670066	5.08382428581	;
JU314	7054.16742187	3.67034179688	;
JU315	7109.92769896	4.70405400353	;
JU316	7129.12646211	4.40402981209	;
JU317	7089.983125	3.16342824074	;
JU318	7070.68616935	3.55691694273	;
JU319	7093.00307629	4.12752707631	;
JU320	7108.9751843	3.4234306608	;
JU321	7143.26854167	6.69322222222	;
JU322	7130.21289839	4.73908545443	;
JU323	7105.6767285	4.29491906975	;
JU324	7154.39918381	1.86839644033	;
JU325	7127.86108169	4.19664019244	;
JU326	7118.75451754	3.24711499348	;
JU327	7087.61563426	3.70542143827	;
JU328	7104.3457915	3.29857396904	;
JU329	7107.17652701	5.45576896869	;
JU330	7112.36328117	3.6144667537	;
JU331	7085.50234614	5.44987637053	;
JU332	7094.53380456	4.12844307329	;
JU333	7089.79825448	4.11047397443	;
JU334	7127.30746914	3.90603219136	;
JU335	7051.00417636	5.37715168658	;
JU336	7079.38966233	3.12362970239	;
JU337	7089.78552284	5.07406216986	;
JU338	7122.02457646	3.66003067109	;
JU339	7131.23495141	3.52050940065	;
JU340	7106.67614025	1.74213560639	;
JU341	7087.82703523	1.54706992066	;
JU342	7099.66390329	2.43000128566	;
JU343	7102.13625002	2.48865345271	;
JU344	7042.56649642	2.4714347265	;
JU345	7083.41163647	1.2454647771	;
JU346	7092.44754813	3.37821703092	;
JU347	7076.50775282	3.37275844184	;
JU348	7087.07869189	2.78892426802	;
JU349	7054.7936278	5.17186174479	;
JU350	7083.28968254	3.70142416226	;
JU351	7118.8586593	4.38885421774	;
JU352	7066.05065242	3.73089845473	;
JU353	7065.44325415	3.85343834825	;
JU354	7093.01785327	3.37532722479	;
JU355	7089.75813407	3.31873782793	;
JU356	7053.61982639	3.99724328704	;
JU357	7115.35119396	3.07821919813	;
JU358	7083.984375	6.641625	;
JU359	7102.14860456	3.30651877326	;
JU360	7120.48265385	5.37444659386	;
JU361	7114.19983518	2.92459780073	;
JU362	7097.49234197	3.75998686369	;
JU363	7096.69212963	2.72342592593	;
JU364	7090.97181509	4.99932665164	;
JU365	7093.36334019	1.70314917695	;
JU366	7088.44444444	5.93797222222	;
JU367	7094.30272184	1.76867594522	;
JU368	7099.22481878	4.75301271495	;
JU369	7110.31354718	2.85045055823	;
JU370	7098.41071528	3.31547602599	;
JU371	7109.17545975	3.98458317178	;
JU372	7090.07353152	4.20852793495	;
JU373	7099.19986979	5.81870800781	;
JU374	7126.26898206	5.87008805892	;
JU375	7124.96527778	7.87836188272	;
JU376	7074.72506886	2.99319381115	;
JU377	7120.23445053	4.35865661661	;
JU378	7102.81500555	3.9113235568	;
JU379	7118.32407407	4.19400617284	;
JU380	7080.32182094	4.90717716189	;
JU381	7041.71496914	5.2753962963	;
JU382	7074.81311049	6.27436920988	;
JU383	7087.29920679	3.16369724691	;
JU384	7091.32065778	4.76355948139	;
JU385	7111.10416667	3.7676611797	;
JU386	7107.56163128	3.68562203947	;
JU387	7087.96430298	5.81755969479	;
JU388	7091.02083333	3.60055555556	;
JU389	7122.91773283	3.44470071741	;
JU390	7115.07450908	6.22905741743	;
JU391	7080.65404027	2.57325490314	;
JU392	7048.62721739	4.30287841435	;
JU393	7107.75560684	4.85034379909	;
JU394	7096.67491005	4.36676013124	;
JU395	7122.02262374	3.83732304312	;
JU396	7100.3036976	4.4738757935	;
JU397	7112.99350326	3.32262269097	;
JU398	7086.44886274	4.95843591307	;
JU399	7091.81203317	3.7799190443	;
JU400	7116.42690549	3.14133637828	;
JU401	7090.81452044	5.67722469884	;
JU402	7079.2059029	3.73682111754	;
JU403	7082.38440326	3.64212273546	;
JU404	7094.18341887	2.97001562474	;
JU405	7099.72948239	4.42718046572	;
JU406	7056.80963595	1.81289603695	;
JU407	7084.887564	4.56998384279	;
JU408	7078.45846399	3.16128043918	;
JU409	7102.7065559	3.8267820771	;
JU410	7099.1353701	4.77929245191	;
JU411	7102.41408472	4.93960645022	;
JU412	7093.48896573	4.07782017669	;
JU413	7081.78902766	5.79698431398	;
JU414	7111.37242798	3.9071840619	;
JU415	7072.02523498	3.64314777572	;
JU416	7118.18066969	3.25985593509	;
JU417	7061.83842907	3.20272241468	;
JU418	7056.11375	3.74700833333	;
JU419	7077.73796825	2.73045809524	;
JU420	7078.26528256	4.74778843202	;
JU421	7160.73063047	2.53566393806	;
JU422	7038.792234	3.41337468006	;
JU423	7057.96319827	3.92447436977	;
JU424	7072.69383796	3.92030650309	;
JU425	7069.39280258	2.9565949256	;
JU426	7100.6967763	3.54269264403	;
JU427	7099.88812482	2.97078186686	;
JU428	7086.81703395	4.86608249892	;
JU429	7106.35246442	5.77139146556	;
JU430	7082.07759969	2.99241149146	;
JU431	7146.09377737	6.30107274912	;
JU432	7086.20817836	4.94166153646	;
JU433	7056.83055556	3.10487385185	;
JU434	7129.64375	5.03815972222	;
JU435	7064.52941049	3.22398309877	;
JU436	7136.625	4.71975	;
JU437	7180.46296296	1.68192592593	;
JU438	7067.77154066	2.94005580576	;
JU439	7106.60375703	3.93265157903	;
JU440	7090.19729409	3.64047952185	;
JU441	7070.52768072	1.96954829748	;
JU442	7070.77350034	2.29827156718	;
JU443	7064.06826224	3.31025818452	;
JU444	7075.12878984	3.57152399828	;
JU445	7069.89008853	4.54992329665	;
JU446	7064.89270346	3.61178831466	;
JU447	7073.1015625	5.15047395833	;
JU448	7086.54829777	4.24501506787	;
JU449	7140.06563284	5.43764380168	;
JU450	7078.84512634	4.59356925153	;
JU451	7085.5994589	3.08392095951	;
JU452	7083.38915509	3.80731590278	;
JU453	7058.22541003	3.57073097346	;
JU454	7034.19232253	2.33269007202	;
JU455	7087.50514188	3.9604372658	;
JU456	7131.00164204	4.42681323093	;
JU457	7086.28295293	3.4480450499	;
JU458	7067.93526734	5.06074051778	;
JU459	7099.66758616	4.4355624968	;
JU460	7087.53093959	3.93288538999	;
JU461	7070.78900827	3.18280013265	;
JU462	7046.02177277	3.50309716542	;
JU463	7130.06579875	5.08525202374	;
JU464	7097.73540807	1.2544416914	;
JU465	7087.31834933	4.4379340112	;
JU466	7094.44902392	4.8237973669	;
JU467	7121.63359789	4.00162580834	;
JU468	7068.96719565	4.57951295571	;
JU469	7076.01587521	4.72928892037	;
JU470	7036.75347222	4.29218865741	;
JU471	7060.4581238	4.14592047312	;
JU472	7074.13426068	2.56269191951	;
JU473	7085.91992391	1.35992399668	;
JU474	7043.89252845	4.62653147184	;
JU475	7062.98451666	5.73833882628	;
JU476	7047.70887415	5.6475494949	;
JU477	7062.73487486	3.70973156909	;
JU478	7118.98229484	5.09969437522	;
JU479	7099.27199196	3.18909434885	;
JU480	7066.96094914	3.98903373054	;
JU481	7096.85377188	3.41759377091	;
JU482	7129.883125	4.73314618056	;
JU483	7071.92173419	4.00308042051	;
JU484	7132.18358779	2.26072598097	;
JU485	7114.65152459	4.49014522553	;
JU486	7105.15246923	5.18915797238	;
JU487	7126.71730324	4.61116599794	;
JU488	7074.60770991	5.49201460998	;
JU489	7044.23487138	4.54882678627	;
JU490	7100.67802284	4.82334457677	;
JU491	7026.15672137	6.25206956113	;
JU492	7161.91666667	2.15522222222	;
JU493	7092.73237562	1.00218142099	;
JU494	7084.597652	5.96367042612	;
JU495	7102.83496775	4.39204715657	;
JU496	7060.99637967	1.97722580929	;
JU497	7075.6636767	6.11612830504	;
JU498	7078.01909486	4.26345119599	;
JU499	7045.52714122	2.71661952601	;
JU500	7067.98568396	3.34532921525	;
JU501	7082.45575101	5.762907931	;
JU502	7077.31248439	4.11567765538	;
JU503	7075.9573948	3.56159283813	;
JU504	7085.86699952	4.39603969476	;
JU505	7083.14278986	3.94107510628	;
JU506	7087.20316592	4.29362415544	;
JU507	7119.36335789	4.35971986142	;
JU508	7082.85203423	2.80847774286	;
JU509	7124.29406521	5.56056140841	;
JU510	7071.74685461	3.09255720535	;
JU511	7108.86299609	2.05627545197	;
JU512	7133.00006205	6.40969705443	;
JU513	7085.5453776	1.00375987413	;
JU514	7057.67709992	4.44359695923	;
JU515	7093.45348414	3.78654245841	;
JU516	7094.89558768	3.01236339758	;
JU517	7113.86367853	1.80291266653	;
JU518	7175.35474537	7.37367740741	;
JU519	7143.02651064	5.01285336271	;
JU520	7137.18003472	4.63595833333	;
JU521	7064.89291992	4.18697903526	;
JU522	7089.1290232	4.22885823248	;
JU523	7040.1709872	3.27126746667	;
JU524	7103.79133488	4.30531760234	;
JU525	7077.76047556	4.61675959106	;
JU526	7077.19149109	4.28285598003	;
JU527	7074.50945295	5.00158053666	;
JU528	7105.48499504	7.03009416336	;
JU529	7085.59564441	4.48780115221	;
JU530	7096.27097963	6.73369362648	;
JU531	7053.38213872	7.24684637897	;
JU532	7039.91629976	5.95619491686	;
JU533	7051.72917183	6.00363364824	;
JU534	7144.69817387	3.40292296811	;
JU535	7117.83512346	2.30659135802	;
JU536	7084.17708333	1.59838888889	;
JU537	7088.12024754	3.28514417989	;
JU538	7109.16875197	2.71284362471	;
JU539	7080.09057333	2.67512281694	;
JU540	7099.44133656	4.43424223424	;
JU541	7093.77436439	4.33804114729	;
JU542	7099.44133656	4.43424223424	;
JU543	7087.888419	4.8495218347	;
JU544	7093.88604578	5.04695563786	;
JU545	7054.860625	2.99135907163	;
JU546	7107.77361111	3.56966435185	;
JU547	7050.82638889	4.28340092593	;
JU548	7111.58619421	3.13724787607	;
JU549	7111.58619421	3.13724787607	;
JU550	7124.01593443	3.71105034232	;
JU551	7133.65609585	3.97171077375	;
JU552	7100.75104181	1.44305751086	;
JU553	7100.75104181	1.44305751086	;
JU554	7105.49330035	2.33049137963	;
JU555	7104.36699186	2.65144968601	;
JU556	7056.87426641	2.39246832937	;
JU557	7093.32598471	3.92362801293	;
JU558	7119.13141943	4.33963480959	;
JU559	7133.09813893	4.28177588711	;
JU560	7106.03446001	4.01846395652	;
JU561	7086.87250212	5.91567215922	;
JU562	7085.31562073	5.77856568808	;
JU563	7130.77356799	4.27979431797	;
JU564	7087.40933586	4.7402980784	;
JU565	7085.03931005	3.70029176484	;
JU566	7111.06555103	2.39016039074	;
JU567	7096.49026518	3.52950221516	;
JU568	7083.39099512	2.18634402402	;
JU569	7086.90573817	4.49635261631	;
JU570	7136.73311043	5.41269056927	;
JU571	7123.921875	2.86227395833	;
JU572	7069.35517795	3.50348161908	;
JU573	7088.9265007	4.95422117901	;
JU574	7060.6029662	4.52577377186	;
JU575	7070.14219699	5.20776805824	;
JU576	7121.02971797	5.05989867489	;
JU577	7049.0556527	7.67326346726	;
JU578	7096.2500254	2.13092449203	;
JU579	7036.58557068	2.47277899573	;
JU580	7087.58868648	5.29918305823	;
JU581	7081.85129051	3.6837819213	;
JU582	7122.73449893	3.20852699172	;
JU583	7082.00247362	5.36100252211	;
JU584	7072.53550586	5.18240024074	;
JU585	7060.25	2.51375	;
JU586	7084.30647207	3.63697237517	;
JU587	7080.44924198	2.22051664198	;
JU588	7086.0737872	5.38364306548	;
JU589	7111.94870078	2.92083084027	;
JU590	7090.0639768	2.2902262706	;
JU591	7048.72464746	3.80060213837	;
JU592	7050.6158528	3.94701940209	;
JU593	7069.63617539	1.87369979311	;
JU594	7058.58986636	3.67698407602	;
JU595	7059.91140193	4.07193995227	;
JU596	7070.3767761	2.51038319873	;
JU597	7100.06907141	4.61343243038	;
JU598	7076.55507549	5.33034798695	;
JU599	7087.89578189	4.95608493724	;
JU600	7132.01666667	5.39471481481	;
JU601	7076.19777117	3.42647344565	;
JU602	7128.13749522	4.75677610918	;
JU603	7065.39547164	5.88271100984	;
JU604	7092.42342607	3.18879556982	;
JU605	7107.02425315	4.50911041032	;
JU606	7144.46527778	6.02452777778	;
JU607	7058.62179332	5.47310197612	;
JU608	7090.7288469	5.77000200609	;
JU609	7097.53331654	5.79455338257	;
JU610	7112.40204215	5.2694145358	;
JU611	7097.7955065	2.95876543105	;
JU612	7060.125	4.58975	;
JU613	7085.29948909	3.58530949074	;
JU614	7121.40190447	3.73346810175	;
JU615	7077.59769772	4.38612935731	;
JU616	7093.67736806	4.87342844444	;
JU617	7122.99691463	3.70500627345	;
JU618	7084.25839622	4.89164903547	;
JU619	7116.39063396	5.49819208382	;
JU620	7125.44817763	3.95078997066	;
JU621	7078.4359127	3.21201071429	;
JU622	7126.97762179	3.81154676568	;
JU623	7101.39085423	4.4051247313	;
JU624	7117.76507849	5.83560749507	;
JU625	7046.03200233	6.22049119342	;
JU626	7037.49713404	2.10639276896	;
JU627	7063.19499204	3.02356334708	;
JU628	7090.54502636	5.43756616512	;
JU629	7066.68743825	4.36320259821	;
JU630	7099.31490397	3.76260247711	;
JU631	7110.94036531	6.03479588903	;
JU632	7110.63663473	4.56160155367	;
JU633	7098.61965153	3.70362257795	;
JU634	7090.22178631	5.40561558137	;
JU635	7089.57039616	2.9799822134	;
JU636	7096.06986979	2.89230467014	;
JU637	7140.6062037	1.83374798611	;
JU638	7064.70313376	2.4513741082	;
JU639	7087.76698775	2.01964405465	;
JU640	7082.66618287	3.34195521296	;
JU641	7103.94349606	1.24782751029	;
JU642	7096.79169242	4.72779700844	;
JU643	7118.89684671	4.49970977366	;
JU644	7131.97037037	4.04193209877	;
JU645	7025.6171875	2.9420390625	;
JU646	7053.95138559	3.17847999571	;
JU647	7102.23479188	5.94129399269	;
JU648	7102.88007799	5.6468577742	;
JU649	7089.85484182	4.42229340278	;
JU650	7064.1894911	5.43214284336	;
JU651	7050.67071759	4.28335856481	;
JU652	7051.46875	5.78288888889	;
JU653	7121.83045428	6.56487785012	;
JU654	7103.09810278	4.56253656639	;
JU655	7081.32456405	3.76385092185	;
JU656	7071.98445535	5.45545849334	;
JU657	7110.44166234	4.67508018042	;
JU658	7088.76131978	6.52240883929	;
JU659	7088.21281661	4.47616280752	;
JU660	7082.79834402	4.19285811333	;
JU661	7080.1646533	4.92961250019	;
JU662	7088.23234588	4.47991565755	;
JU663	7083.39743586	4.79606888036	;
JU664	7075.3432691	5.20281466037	;
JU665	7094.00513833	4.27136150284	;
JU666	7079.90460431	3.34945938069	;
JU667	7093.56487938	2.96364618211	;
JU668	7072.22518808	3.05259635417	;
JU669	7102.0257603	4.73805177601	;
JU670	7063.91437898	6.14767227286	;
JU671	7058.97385764	3.99080812286	;
JU672	7073.39623293	3.64764820883	;
JU673	7032.17388117	4.47277083333	;
JU674	7041.9375	6.228	;
JU675	7064.81928289	3.77413305041	;
JU676	7083.28222435	3.29764054705	;
JU677	7087.74921404	4.1611197824	;
JU678	7132.80887825	4.20420446987	;
JU679	7060.33339506	4.46585549383	;
JU680	7105.84028274	4.81752380291	;
JU681	7100.43125294	5.51427535391	;
JU682	7109.04701705	3.22844701384	;
JU683	7075.23565773	4.88601436202	;
JU684	7055.72480556	4.51634785322	;
JU685	7086.04056851	3.13470413095	;
JU686	7097.35153333	0.765113333333	;
JU687	7110.18955749	4.71169176273	;
JU688	7089.53496589	1.09952165476	;
JU689	7086.16345335	6.17605829029	;
JU690	7118.71426724	5.25965317524	;
JU691	7087.99957135	6.19700356942	;
JU692	7084.31020267	5.28034243776	;
JU693	7033.45821277	2.31575427598	;
JU694	7089.53858025	6.81102962963	;
JU695	7091.65547666	4.51857082369	;
JU696	7112.57885274	3.72066069965	;
JU697	7092.53947249	6.29531663022	;
JU698	7101.8020709	4.70122520356	;
JU699	7105.00957467	3.85715699197	;
JU700	7074.01961111	1.80681012963	;
JU701	7086.24449468	2.50478992975	;
JU702	7157.51413002	7.02217235725	;
JU703	7077.443175	4.89813060926	;
JU704	7045.75866243	3.09628042846	;
JU705	7056.08726195	1.55423607318	;
JU706	7145.06481481	6.07431111111	;
JU707	7092.43856669	4.69383749346	;
JU708	7127.1322068	4.76703101674	;
JU709	7119.20223197	2.52964308806	;
JU710	7129.29501424	3.97074990851	;
JU711	7093.6068041	4.95747612222	;
JU712	7083.24882596	5.66858427623	;
JU713	7116.68601878	2.34714413872	;
JU714	7070.9121437	3.55923688188	;
JU715	7049.79180556	6.39304791667	;
JU716	7093.90446759	5.39680735597	;
JU717	7052.08669375	2.00389479718	;
JU718	7034.83848466	2.57254552016	;
JU719	7063.66194588	2.83681737838	;
JU720	7066.02409047	6.02335308063	;
JU721	7107.3561214	4.02272361111	;
JU722	7074.17357583	4.71963178243	;
JU723	7089.88645833	3.88313472222	;
JU724	7097.75807203	5.89259612741	;
JU725	7104.69812083	5.63002080457	;
JU726	7078.04875	0.79186	;
JU727	7104.26661058	1.52048109347	;
JU728	7157.26099456	3.14411577344	;
JU729	7090.86603331	4.6308734375	;
JU730	7059.42869676	4.0949206713	;
JU731	7096.36009011	3.13825135493	;
JU732	7093.68777756	4.74847780564	;
JU733	7054.27412496	2.6075054865	;
JU734	7083.34680746	2.67196546241	;
JU735	7093.68777756	4.74847780564	;
JU736	7102.05376238	3.92540461195	;
JU737	7083.34680746	2.67196546241	;
JU738	7096.36009011	3.13825135493	;
JU739	7081.297529	3.77206851016	;
JU741	7092.85701972	2.44889710591	;
JU742	7059.40069444	3.60672847222	;
JU743	7103.84382093	4.22362007606	;
JU744	7118.21754114	6.36080125231	;
JU745	7097.26562564	1.29320404155	;
JU746	7114.07112488	4.71641102074	;
JU747	7151.826898	2.02331798513	;
JU748	7063.88488276	3.21056001884	;
JU749	7120.77603408	2.32213765578	;
JU750	7086.28295293	3.4480450499	;
JU751	7131.31383201	5.29408883333	;
JU752	7091.33564333	3.46925484568	;
JU753	7089.91830807	3.52105571848	;
JU754	7113.49268812	2.50684883892	;
JU755	7063.73649769	3.31833068943	;
JU756	7075.11905049	2.10770988744	;
JU757	7073.43374566	4.31329198495	;
JU758	7108.85884231	4.81272112783	;
JU759	7115.26431759	3.8979121176	;
JU760	7075.0838955	3.42447046613	;
JU761	7087.53404734	4.13374261127	;
JU762	7088.79670541	4.36624367112	;
JU763	7093.39277528	4.9806700351	;
JU764	7066.82615879	4.37157112211	;
JU765	7130.40077691	5.39968085214	;
JU766	7131.07075645	6.59811894938	;
JU767	7113.13261572	4.1365293508	;
JU768	7129.31128419	4.65491000517	;
JU769	7145.14853781	5.3424506833	;
JU770	7093.25154297	2.87356591797	;
JU771	7104.64610597	3.67030907215	;
JU772	7093.65506763	3.62670576841	;
JU773	7046.87317332	2.31331356655	;
JU774	7097.78854881	2.70626802218	;
JU775	7096.96688368	3.34442708333	;
JU776	7158.70522029	6.65062019478	;
JU777	7078.03135188	3.51991108338	;
JU778	7065.35438982	3.56339031463	;
JU779	7071.361851	5.69106860382	;
JU780	7088.33094657	3.2851519483	;
JU781	7069.3794307	5.55068174913	;
JU782	7071.44002631	3.46997489782	;
JU783	7087.63844797	4.81231569665	;
JU784	7119.5289712	4.1146390614	;
JU785	7078.86759147	5.37359568182	;
JU786	7031.77839506	6.14598765432	;
JU787	7087.34969138	4.71104739593	;
JU788	7087.4483879	6.48634973006	;
JU789	7081.69974717	5.45066063746	;
JU790	7065.35155341	7.12615493485	;
JU791	7083.37698413	7.24387830688	;
JU792	7073.97465668	5.13484019479	;
JU793	7073.30066964	3.4342484375	;
JU794	7078.3729632	2.95137053084	;
JU795	7107.60213333	7.98902933333	;
JU796	7082.32483676	5.25870450375	;
JU797	7078.36613448	2.86283459253	;
JU798	7052.31793527	4.29598290923	;
JU799	7143.26854167	6.69322222222	;
JU800	7121.01188857	2.26719917459	;
JU801	7116.74911659	3.92026834845	;
JU802	7108.908633	3.91870555979	;
JU803	7112.92498912	4.93342938841	;
JU804	7059.23132187	2.3696010708	;
JU805	7144.64628344	5.27906712963	;
JU806	7135.71249302	4.56706881911	;
JU807	7150.86070045	5.10100283908	;
JU808	7074.59515205	4.28429617593	;
JU809	7057.78485597	3.44938418722	;
JU810	7062.19826389	4.60388287037	;
JU811	7072.17455744	4.676593738	;
JU812	7063.27380134	2.8389712859	;
JU813	7090.47577482	3.98602420653	;
JU814	7123.27918034	5.17068695628	;
JU815	7077.53689801	2.87016396005	;
JU816	7089.30730355	3.86768814659	;
JU817	7127.50153125	4.14084097222	;
JU818	7124.46306584	3.05653127572	;
JU819	7076.11506755	4.79138194681	;
JU820	7063.05765432	6.91562718338	;
JU821	7132.41209345	5.70165474314	;
JU822	7076.46854638	6.15084651675	;
JU823	7086.87437869	3.8119618539	;
JU824	7066.77571377	3.70589770439	;
JU825	7072.24908854	3.84894971065	;
JU826	7151.14166667	7.212675	;
JU827	7070.91812066	5.30790053819	;
JU828	7066.72977229	2.79828721055	;
JU829	7062.89141393	3.36828274264	;
JU830	7079.11302973	3.89141311833	;
JU831	7118.55729167	2.97079166667	;
JU832	7105.90813006	4.66714571036	;
JU833	7078.28645833	3.81626770833	;
JU834	7076.53745177	2.98288449074	;
JU835	7083.17493727	3.05006019267	;
JU836	7110.45308642	3.52503587963	;
JU837	7113.10609274	3.76887662437	;
JU838	7079.65701389	3.34827731481	;
JU839	7120.20550917	3.7717266686	;
JU840	7123.87291667	3.88024444444	;
JU841	7117.55193707	3.71430377701	;
JU842	7103.80464059	2.89527577781	;
JU843	7113.59081098	3.34649804464	;
JU844	7163.03166795	6.91682438014	;
JU845	7143.8613678	3.84011723115	;
JU846	7060.87505663	3.85820474172	;
JU847	7118.77739749	0.724866699735	;