[TITLE]
Generated synthetic network;

[JUNCTIONS]
;ID	Elev	Demand	Pattern
JU2	7092.95946759	6.50744939815	;
JU3	7090.625	4.208875	;
JU4	7100.54026306	4.42438692984	;
JU5	7046.92490741	6.61331562037	;
JU6	7055.94888889	7.80178879861	;
JU7	7072.74874348	3.89508268203	;
JU8	7082.099084	4.23790429758	;
JU9	7086.49153439	7.56273892593	;
JU10	7111.58925781	5.5647533941	;
JU12	7102.38482216	1.51433029585	;
JU13	7110.55953704	6.70353814815	;
JU14	7047.04418131	4.62263832294	;
JU15	7062.690668	3.92421612256	;
JU16	7194.14485556	7.2170615625	;
JU17	7105.98985972	4.58280100352	;
JU18	7086.3125	2.63816666667	;
JU19	7073.125	2.73099814815	;
JU20	7123.24007937	4.96355555556	;
JU21	7100.83005142	12.7862790033	;
JU22	7063.10705315	116.025195197	;
JU23	7134.23271823	3.61021745614	;
JU24	7078.1579966	4.10935850301	;
JU25	7080.73523308	4.75681178894	;
JU26	7088.1670642	3.54496294568	;
JU27	7097.86774422	2.99441145856	;
JU28	7106.13587183	5.2707255723	;
JU29	7082.79206723	101.517260345	;
JU30	7078.74626428	73.3329138084	;
JU31	7059.2992284	4.91810509259	;
JU32	7055.59877178	4.49343333365	;
JU33	7115.65651938	5.30336114617	;
JU34	7100.3752931	4.42909387096	;
JU35	7113.80412411	3.34033482976	;
JU36	7084.32832099	4.18686731076	;
JU37	7084.52394872	3.56771326441	;
JU38	7090.09871819	3.8248830902	;
JU40	7101.82151216	237.579988696	;
JU41	7085.92713767	4.91633838863	;
JU42	7126.73339314	4.65959642195	;
JU43	7027.05242372	3.72625538411	;
JU44	7100.81869169	5.24565043812	;
JU45	7079.58838258	2.97781068196	;
JU46	7099.56998687	9.39549781026	;
JU47	7099.48880819	5.95523639692	;
JU48	7108.08815409	6.35860778179	;
JU49	7095.3186109	3.73938679559	;
JU50	7077.77353395	3.00361831276	;
JU51	7067.20922782	2.19894583705	;
JU52	7094.00647051	4.55572773519	;
JU53	7061.81874063	2.94602084325	;
JU54	7099.23342593	3.20400145833	;
JU55	7100.89847525	4.17399648648	;
JU56	7087.31133345	3.6962981773	;
JU57	7108.839904	3.54216785926	;
JU58	7116.0485349	3.37541832758	;
JU59	7101.20897874	128.045813824	;
JU60	7092.0762311	3.89894369261	;
JU61	7139.71325191	4.06021040847	;
JU62	7097.86842536	3.31908926578	;
JU63	7041.75169389	4.33877340455	;
JU64	7129.5625	6.5890625	;
JU65	7041.01274526	4.19514388782	;
JU66	7077.5584423	5.12596477561	;
JU67	7124.27304687	4.70021171875	;
JU68	7022.74314471	2.52562886833	;
JU69	7106.36759259	1.93589783951	;
JU70	7055.46296296	2.25848148148	;
JU71	7074.87589542	2.7309897346	;
JU72	7037.01351852	3.74457796296	;
JU73	7176.1625	3.1714537037	;
JU74	7129.07979001	4.61339963624	;
JU75	7097.22509627	5.07426049693	;
JU77	7056.74680633	3.93762513066	;
JU78	7128.39015873	1.80273228836	;
JU79	7098.2190467	3.10778753663	;
JU80	7063.33836806	2.50206944444	;
JU81	7112.77331349	2.07075363757	;
JU82	7136.82762136	1.94971418038	;
JU83	7077.57292769	2.26614929453	;
JU84	7067.68080319	2.61750609086	;
JU85	7110.17646469	4.95131894144	;
JU86	7068.42454668	3.41880960648	;
JU87	7081.48503215	2.49339214506	;
JU88	7056.92051826	3.39714633671	;
JU89	7060.13865741	3.48335601852	;
JU90	7074.87355245	3.00878290054	;
JU91	7067.1776046	3.13907806094	;
JU92	7094.81820628	2.71340000456	;
JU93	7059.3763963	2.77821140741	;
JU94	7067.3931785	2.27234318864	;
JU95	7057.65830358	2.40212518691	;
JU96	7086.5864124	4.72322049205	;
JU97	7101.82151216	237.579988696	;
JU98	7115.21835578	4.84494273731	;
JU99	7091.40659259	3.87330979894	;
JU100	7063.67411688	2.21551466509	;
JU101	7080.24244866	3.40223820509	;
JU102	7093.28407118	4.45272842689	;
JU103	7055.41692333	5.14625101378	;
JU104	7046.0	4.72144444444	;
JU105	7043.33833333	1.64754740741	;
JU106	7064.32357991	142.175174819	;
JU107	7179.87243717	7.32448808598	;
JU108	7095.47128206	3.96769236419	;
JU109	7092.90010602	4.75210097807	;
JU110	7089.55994659	2.60512064769	;
JU111	7123.95172743	4.54134190394	;
JU112	7100.36086558	4.66786712023	;
JU113	7111.08103265	3.40021653804	;
JU114	7142.92265206	4.02071965874	;
JU115	7076.40142744	4.88128414544	;
JU116	7113.42437591	2.19835231267	;
JU117	7130.98859024	2.82442858405	;
JU118	7098.96673032	2.44000029835	;
JU119	7049.66214411	5.77027560432	;
JU120	7098.24451597	1.33709752787	;
JU121	7028.81836111	6.26666988889	;
JU122	7106.52829861	5.89463296296	;
JU123	7110.88602553	1.93026175193	;
JU124	7087.03076132	2.5339218107	;
JU125	7087.73091804	3.38621169456	;
JU126	7144.22222222	4.35293055556	;
JU127	7069.88153882	2.88467368624	;
JU128	7041.49597743	3.49536885417	;
JU129	7057.875	4.022	;
JU130	7161.83486111	5.03830690741	;
JU131	7081.02337594	2.45129958143	;
JU132	7086.08849259	6.28328435929	;
JU133	7133.02353533	5.25011692571	;
JU134	7100.72226742	1.99363937096	;
JU135	7090.62497778	5.31010853333	;
JU136	7138.22498522	4.9637851508	;
JU137	7123.53602778	2.63010613657	;
JU138	7053.15503649	3.69001787573	;
JU139	7117.82720181	4.99249505947	;
JU140	7087.48117794	3.9236251076	;
JU141	7087.52419085	3.03523694926	;
JU142	7100.27636283	5.08604304288	;
JU143	7095.54251481	4.83371140364	;
JU144	7108.00954947	4.65959132222	;
JU145	7107.97025264	2.51298935739	;
JU146	7109.58087624	5.05942875481	;
JU147	7039.99360425	5.62240438957	;
JU148	7076.94897224	4.84689507554	;
JU149	7107.12758952	2.55511996745	;
JU150	7136.52458767	3.28025983193	;
JU151	7186.68969425	7.25748124035	;
JU152	7089.66678103	3.97306809138	;
JU153	7116.98994646	3.10664143356	;
JU154	7087.70678095	2.24830349542	;
JU155	7109.26627061	0.718803238442	;
JU156	7107.72274178	4.71399335091	;
JU157	7121.62167526	7.08902595812	;
JU158	7107.74672546	4.46921221885	;
JU159	7113.22099862	7.88429414167	;
JU160	7051.48331914	4.02519771674	;
JU161	7091.92748177	4.18411462674	;
JU162	7077.36053565	4.18351512155	;
JU163	7070.81	3.890325	;
JU164	7043.29366667	5.02907413333	;
JU165	7039.87100103	2.99079300017	;
JU166	7089.26717593	6.41424011111	;
JU167	7111.13332628	2.80694669367	;
JU168	7113.25084877	6.4015992284	;
JU169	7083.86850644	4.86920126721	;
JU170	7067.56628156	3.63702909678	;
JU171	7170.75850463	5.24703933642	;
JU172	7107.0670963	5.32203206481	;
JU173	7062.63720949	1.24363871528	;
JU174	7085.00565556	2.79961319444	;
JU175	7087.03496296	2.60837562346	;
JU176	7095.22587127	2.19045850051	;
JU177	7135.375	3.61675	;
JU178	7066.17402083	2.3058917473	;
JU179	7106.37130594	4.70961019162	;
JU180	7081.86047985	74.8867797574	;
JU181	7070.15314815	2.38929101852	;
JU182	7069.84704591	2.9028553008	;
JU183	7077.83213657	3.66567140998	;
JU184	7074.00373347	3.53551958093	;
JU185	7104.87755015	5.21046344856	;
JU186	7050.72222222	3.75164135802	;
JU187	7056.34339146	3.59426687997	;
JU188	7079.79620718	3.57329959388	;
JU189	7085.63878671	3.85551571561	;
JU190	7092.6120799	2.33049871399	;
JU191	7086.91652163	3.60178118713	;
JU192	7087.33326407	2.66719861232	;
JU193	7069.75291667	6.14475	;
JU194	7089.57518012	2.24030733342	;
JU195	7064.12962963	4.022	;
JU196	7100.12518908	2.70755106415	;
JU197	7121.09102549	4.44787476175	;
JU198	7118.8283119	3.49439006874	;
JU199	7079.2103647	1.74426133787	;
JU200	7102.09616262	3.03846172299	;
JU201	7102.80201168	2.00624768519	;
JU202	7093.3448642	5.27801554012	;
JU203	7104.22804973	4.54248198903	;
JU204	7080.47535243	2.71106021528	;
JU205	7076.35309874	2.94995512989	;
JU206	7062.15777449	3.4253365166	;
JU207	7074.2645173	2.89134270991	;
JU208	7079.67462315	4.09558782845	;
JU209	7075.48233928	2.70964821389	;
JU210	7061.85588889	3.44959277778	;
JU211	7080.67314882	4.35818483902	;
JU212	7072.74372733	2.34971465567	;
JU213	7061.59686173	4.65060070718	;
JU214	7101.39743699	2.41732608025	;
JU215	7098.33698724	1.24348539208	;
JU216	7103.75514403	5.27429835391	;
JU217	7097.77222222	8.20943888889	;
JU218	7092.61199167	3.04523022101	;
JU219	7095.34078513	6.59591679068	;
JU220	7057.8300279	2.67928214334	;
JU221	7070.62498539	3.45726083415	;
JU222	7051.69198563	3.22391774884	;
JU223	7103.92140287	5.40095756327	;
JU224	7073.83761893	3.47866340162	;
JU225	7062.10336128	3.49567116857	;
JU226	7116.27135502	2.60625535065	;
JU227	7086.94066163	4.68936519353	;
JU228	7039.18197302	2.55374554184	;
JU229	7167.41770833	5.01675636574	;
JU230	7058.26180556	3.70502070988	;
JU231	7082.44743721	4.60396251233	;
JU232	7103.81936825	2.57472503858	;
JU233	7104.42017361	5.56656983333	;
JU234	7084.4	0.970966666667	;
JU235	7098.81778304	4.90910851607	;
JU236	7147.23157295	3.80560253344	;
JU237	7081.83569527	0.984797103175	;
JU238	7073.05861607	3.8346256746	;
JU239	7123.74306971	2.58885303502	;
JU240	7077.18327359	3.37117359628	;
JU241	7115.44940469	5.13569262817	;
JU242	7119.7214001	4.35747115594	;
JU243	7092.62152594	4.88999883304	;
JU244	7115.44940469	5.13569262817	;
JU245	7049.34546039	2.8858279321	;
JU246	7048.90279571	2.73614346997	;
JU247	7121.29524405	5.29426153968	;
JU248	7128.91490741	3.64812037037	;
JU249	7124.26867541	3.42431841564	;
JU250	7080.3282716	1.78849459877	;
JU251	7059.10845289	7.16982729201	;
JU252	7071.79817708	3.19040104167	;
JU253	7073.85847785	3.27884588156	;
JU254	7047.93361204	3.80803849265	;
JU255	7087.94445347	5.28290677324	;
JU256	7070.2852381	4.46826931217	;
JU257	7089.52609887	3.74679566734	;
JU258	7043.84121056	3.00373397184	;
JU259	7118.90625199	4.242871078	;
JU260	7068.1612716	4.14603201852	;
JU261	7060.90112413	3.93330942983	;
JU262	7113.41704925	3.63316631556	;
JU263	7106.93958874	3.58690319636	;
JU264	7119.59887502	3.5201777451	;
JU265	7043.67916667	3.0306962963	;
JU266	7063.1917965	3.87178977013	;
JU267	7060.25042263	3.08578523365	;
JU268	7087.1617284	2.29700864198	;
JU269	7073.82554953	5.13483152179	;
JU270	7088.51477538	4.96967479424	;
JU271	7100.77274292	4.17721140487	;
JU272	7092.87628984	5.22234816223	;
JU273	7091.74451123	3.1208204435	;
JU274	7105.53847741	5.12430854653	;
JU275	7107.34736596	4.67493840748	;
JU276	7075.58276559	5.81425341476	;
JU277	7109.7506885	3.83722051133	;
JU278	7100.63086098	4.48768765111	;
JU279	7122.47410757	5.07631939651	;
JU280	7077.18383762	3.94909961111	;
JU281	7141.80182659	6.25261569481	;
JU282	7133.97998388	1.87856266617	;
JU283	7088.08275704	2.64677045718	;
JU284	7097.65161817	4.61719852734	;
JU285	7090.64424291	3.55912175951	;
JU286	7099.13821294	3.26875593603	;
JU287	7099.94407444	5.112733875	;
JU288	7034.37637205	5.26927411405	;
JU289	7111.79547275	6.0292321966	;
JU290	7093.46364504	114.017062237	;
JU291	7042.71421644	5.93574036584	;
JU292	7049.03910751	3.63338708848	;
JU293	7097.55718294	6.36681183334	;
JU294	7076.47425277	2.72529172231	;
JU295	7084.31780093	2.97438462963	;
JU296	7076.60254838	3.47785842919	;
JU297	7086.50541329	2.01068766075	;
JU298	7096.4	5.19446666667	;
JU299	7094.51410477	5.25640802132	;
JU300	7094.32367402	5.31359651937	;
JU301	7085.64290517	3.13283435562	;
JU302	7110.48267304	3.92338464439	;
JU303	7077.72971231	3.95701985473	;
JU304	7053.90787824	3.86098938612	;
JU305	7092.84158726	4.75571120729	;
JU306	7044.31115596	3.28352738137	;
JU307	7114.47520014	4.51103404972	;
JU308	7068.46000524	7.04513720219	;
JU309	7074.79001476	4.15308001815	;
JU310	7062.81052272	3.49106925733	;
JU311	7081.17820763	3.68347209896	;
JU312	7071.31678336	3.20954185159	;
JU313	7090.39374837	5.33057963717	;
JU314	7076.6883521	6.63011978253	;
JU315	7049.59146638	4.33334529803	;
JU316	7062.88634811	3.79348898774	;
JU317	7069.6853864	3.78958583751	;
JU318	7074.55748439	3.67328828078	;
JU319	7041.82956055	4.10235446011	;
JU320	7073.75611828	4.38775510976	;
JU321	7082.08069904	2.79564240814	;
JU322	7143.45692176	6.44125449352	;
JU323	7038.26708711	3.92503257511	;
JU324	7103.6565	7.10414616512	;
JU325	7084.61895181	3.75214285788	;
JU326	7113.4376713	5.3830007963	;
JU327	7126.73339314	4.65959642195	;
JU328	7126.74432479	6.26185853621	;
JU329	7189.79604167	7.57664083333	;
JU330	7117.35208333	3.45334722222	;
JU331	7110.48267304	3.92338464439	;
JU332	7085.64290517	3.13283435562	;
JU333	7046.122384	3.54578293701	;
JU334	7123.19818017	2.22743068836	;
JU335	7061.61046007	4.38803211806	;
JU336	7124.79653206	3.57754329561	;
JU337	7077.13623921	3.35476137854	;
JU338	7073.89113889	3.39369708025	;
JU339	7040.20416667	1.2079537037	;
JU340	7053.83399896	5.29600331866	;
JU341	7046.24513011	4.74586010241	;
JU342	7086.7337963	3.50017592593	;
JU343	7057.64467593	2.24422685185	;
JU344	7084.15049162	2.28603075838	;
JU345	7064.93971193	5.73694457305	;
JU346	7070.804	5.70451	;
JU347	7077.6264077	4.5109582581	;
JU348	7096.33995966	5.02901276646	;
JU349	7089.88719634	4.87129384086	;
JU350	7080.5984955	4.77966537607	;
JU351	7081.24992739	3.06774508226	;
JU352	7123.84035087	3.97966278849	;
JU353	7120.0	4.152	;
JU354	7082.3400185	2.83464073749	;
JU355	7029.86342593	0.840962962963	;
JU356	7082.56821816	2.81006800297	;
JU357	7082.3013696	4.39482044753	;
JU358	7101.76550926	2.33740740741	;
JU359	7083.63296296	1.85853703704	;
JU360	7085.56944444	3.87447222222	;
JU361	7121.78879189	13.191671796	;
JU362	7073.40989244	2.70185099419	;
JU363	7067.7998882	2.54884658405	;
JU364	7075.02849851	3.41559054267	;
JU365	7081.68711508	3.52456727746	;
JU366	7094.50834418	2.92516965712	;
JU367	7061.95054513	1.586795385	;
JU368	7098.3828125	2.61169618056	;
JU369	7075.98048921	3.64919964147	;
JU370	7109.03221575	2.89152382971	;
JU371	7059.43253401	2.85167638364	;
JU372	7062.7359838	3.24940505952	;
JU373	7080.76366027	0.768671696388	;
JU374	7095.47963452	4.04564647188	;
JU375	7106.36100074	4.56059980507	;
JU376	7087.66745997	1.74412543885	;
JU377	7056.16524846	3.18933232562	;
JU378	7086.03787438	2.12584882219	;
JU379	7172.51041667	3.9534375	;
JU380	7050.93322917	2.51476722222	;
JU381	7095.33531118	5.25309567732	;
JU382	7099.65937182	3.03864938987	;
JU383	7113.1851589	2.87094756063	;
JU384	7098.85804241	3.38802928957	;
JU385	7087.46714988	4.27429482639	;
JU386	7082.3186722	4.18645614806	;
JU387	7096.86441391	1.27801993854	;
JU388	7081.57581724	5.21028686023	;
JU389	7126.68327271	1.42398400022	;
JU390	7105.88366522	3.80633415323	;
JU391	7147.23554573	4.61694280295	;
JU392	7053.66102679	2.15146552579	;
JU393	7074.16666667	3.10925925926	;
JU394	7159.31045042	5.2001204186	;
JU395	7080.32127879	4.67480523961	;
JU396	7041.48162037	2.6177824537	;
JU397	7074.48504964	2.11277788207	;
JU398	7129.98061921	4.91674077546	;
JU399	7070.15697145	2.26122118827	;
JU400	7081.5213661	3.77259525624	;
JU401	7077.99320511	2.97543063959	;
JU402	7128.7287037	2.18494962963	;
JU403	7059.44780128	1.14842588877	;
JU404	7115.20858138	5.86249473483	;
JU405	7093.56851577	4.0512725879	;
JU406	7185.70701903	2.02591990741	;
JU407	7135.24707164	5.08483550666	;
JU408	7094.50302932	2.18483742284	;
JU409	7070.24446181	4.04902659722	;
JU410	7130.87407451	3.48269866469	;
JU411	7086.49153439	2.52676904762	;
JU412	7126.81228746	5.03361753167	;
JU413	7114.55211936	5.85541671831	;
JU414	7114.55211936	5.85541671831	;
JU415	7089.90913317	4.85360521125	;
JU416	7137.68478027	5.71778650401	;
JU417	7094.60199656	3.63774428312	;
JU418	7079.81634221	5.12644930839	;
JU419	7041.49597743	3.49536885417	;
JU420	7085.26509102	2.40636009527	;
JU421	7085.26509102	2.40636009527	;
JU422	7061.18454861	2.54709722222	;
JU423	7048.28873457	2.49627623457	;
JU424	7093.28407118	4.45272842689	;
JU425	7121.99305556	4.19694097222	;
JU426	7147.16743056	5.35852012037	;
JU427	7101.69406667	2.66752666667	;
JU428	7110.9570011	3.31977366096	;
JU429	7068.25980822	2.96151145528	;
JU430	7094.34959789	5.53886841839	;
JU431	7089.08421688	3.29717935439	;
JU432	7092.75054686	2.88167966967	;
JU433	7059.77235648	4.43432359259	;
JU434	7090.77222222	0.0776913580247	;
JU435	7091.21951812	3.42401924727	;
JU436	7133.86309524	2.96339285714	;
JU437	7062.83131687	8.23135061728	;
JU438	7093.86631944	4.51365347222	;
JU439	7086.75286458	4.2327686794	;
JU440	7085.85766602	3.01342910807	;
JU441	7096.41622818	3.1740643246	;
JU442	7093.66523437	4.30419861449	;
JU443	7094.34015577	4.56429613268	;
JU444	7101.42371721	4.57611662455	;
JU445	7063.39107292	2.32058889448	;
JU446	7080.65828395	1.33771751354	;
JU447	7104.63399216	4.60665055705	;
JU448	7086.75286458	4.2327686794	;
JU449	7070.58182468	3.70987830575	;
JU450	7102.55581342	3.12679091052	;
JU451	7134.0637037	4.37627407407	;
JU452	7069.95920139	3.22957291667	;
JU453	7066.93833194	4.14167992632	;
JU454	7062.77813784	2.09196184744	;
JU455	7075.11357941	2.99787257068	;
JU456	7066.49203318	4.89614467593	;
JU457	7089.47354559	1.8608824864	;
JU458	7131.0867438	5.64628992189	;
JU459	7080.4570507	4.11176904879	;
JU460	7066.53886526	0.770620470679	;
JU461	7054.2224537	5.10887067901	;
JU462	7095.02427782	1.19924981944	;
JU463	7068.33113346	3.10254351546	;
JU464	7059.17007523	3.1789108631	;
JU465	7024.8125	4.143875	;
JU466	7087.31691145	4.56838621782	;
JU467	7073.29209551	3.65014351813	;
JU468	7074.17394092	2.34728428305	;
JU469	7067.68975372	3.29079646313	;
JU470	7087.69794082	2.55657773404	;
JU471	7078.01901663	3.75624431374	;
JU472	7065.66454741	3.8943578284	;
JU473	7093.18139912	4.07984312369	;
JU474	7095.23088744	3.54836265813	;
JU475	7074.70396091	1.22055452675	;
JU476	7081.30458113	4.72145058943	;
JU477	7063.5536725	4.21185037659	;
JU478	7081.82493141	0.686157064472	;
JU479	7125.38062041	2.39380525636	;
JU480	7101.22299383	2.4638132716	;
JU481	7074.17394092	2.34728428305	;
JU482	7101.052874	3.76505958476	;
JU483	7110.98164405	6.35045681349	;
JU484	7107.77173386	5.77920993891	;
JU485	7079.60879469	4.0029865537	;
JU486	7083.90212701	2.38875760205	;
JU487	7081.64483562	4.56970876871	;
JU488	7080.37802585	2.70905587877	;
JU489	7070.90524691	4.49969799383	;
JU490	7043.01373457	2.13049958848	;
JU491	7087.47194444	5.210905	;
JU492	7058.10283951	5.3572217284	;
JU493	7050.78541852	2.25187507407	;
JU494	7115.33509673	3.9351547132	;
JU495	7053.18267052	2.98646972762	;
JU496	7103.75514403	5.27429835391	;
JU497	7097.41215278	2.49383402778	;
JU498	7080.85231481	6.17463148148	;
JU499	7084.39281173	3.88467491817	;
JU500	7084.66159938	2.47943795051	;
JU501	7118.66400022	3.5023018838	;
JU502	7070.18353292	5.25483750206	;
JU503	7073.09175805	3.18164532892	;
JU504	7098.00771605	0.407052469136	;
JU505	7058.43036265	4.86146450617	;
JU506	7074.93578196	5.28521658827	;
JU507	7079.11607852	3.17092296493	;
JU508	7087.07126912	5.27962896936	;
JU509	7086.19381935	6.16044987193	;
JU510	7087.07126912	5.27962896936	;
JU511	7085.35028298	6.07944851705	;
JU512	7078.63964588	3.08687002144	;
JU513	7082.82523144	1.73148055712	;
JU514	7055.64830224	6.43230320351	;
JU515	7165.07092039	4.13404077258	;
JU516	7168.55100284	6.49712185353	;
JU517	7168.55100284	6.49712185353	;
JU518	7164.39727869	5.65892641169	;
JU519	7088.72211677	3.93478353624	;
JU520	7142.69036271	4.57757838952	;
JU521	7128.05496145	4.14773055279	;
JU522	7146.19418874	5.53334484397	;
JU523	7146.19418874	5.53334484397	;
JU524	7091.16386199	6.67118383565	;
JU525	7116.75216034	5.73845588609	;
JU526	7090.23575397	2.13809896825	;
JU527	7097.36012884	4.47223498936	;
JU528	7085.27212449	2.40522916667	;
JU529	7092.29292292	3.49429413565	;
JU530	7108.00489648	2.34580857767	;
JU531	7075.39300004	2.81026137625	;
JU532	7090.40350112	4.31853219225	;
JU533	7135.2175364	3.96571274064	;
JU534	7050.65816716	2.35905983194	;
JU535	7112.09657922	2.57208534979	;
JU536	7113.32995387	5.63971279127	;
JU537	7114.71912014	6.1489718285	;
JU538	7100.33598132	5.93296668486	;
JU539	7113.8426439	5.90733044637	;
JU540	7095.91285388	4.58360098669	;
JU541	7133.03392322	3.95498226416	;
JU542	7067.56058349	4.40715003042	;
JU543	7155.88476511	4.26666394417	;
JU544	7089.68183795	2.27900240765	;
JU545	7088.42498019	1.87573803448	;
JU546	7119.06687856	3.98954815832	;
JU547	7023.48611111	7.4385462963	;
JU548	7170.125	1.0055	;
JU549	7110.46412037	4.99561574074	;
JU550	7083.36581244	2.22427499116	;
JU551	7076.90647233	1.35400806198	;
JU552	7111.84674411	2.47192590049	;
JU553	7070.44328993	7.00688391782	;
JU554	7091.14669284	3.58725011194	;
JU555	7085.20351173	5.84788123457	;
JU556	7051.97596164	2.84443031922	;
JU557	7082.73868868	3.15257116815	;
JU558	7123.78917354	3.26692534906	;
JU559	7068.99172625	2.63679684004	;
JU560	7025.87270134	3.40787470635	;
JU561	7094.36775461	3.24428016821	;
JU562	7083.60405846	3.76214218171	;
JU563	7085.82423598	2.01863473389	;
JU564	7088.0900517	3.35980684259	;
JU565	7119.47499209	5.02494439863	;
JU566	7095.27204067	3.26149336355	;
JU567	7095.24444772	2.35020241567	;
JU568	7120.71885851	6.67242438762	;
JU569	7095.68111577	2.59189265627	;
JU570	7057.88288325	4.87229601238	;
JU571	7067.13138538	2.23687799501	;
JU572	7070.28177612	4.549057647	;
JU573	7059.25367277	1.83292804663	;
JU574	7045.25565527	4.55682417163	;
JU575	7048.09675471	4.30180354681	;
JU576	7102.0690106	3.55630132927	;
JU577	7108.57102328	5.63198587585	;
JU578	7109.49585777	2.90497181327	;
JU579	7047.03269676	1.79190817901	;
JU580	7091.92879819	6.87663151422	;
JU581	7043.67916667	3.0306962963	;
JU582	7106.15775	5.92200791667	;
JU583	7098.44669589	3.28623152199	;
JU584	7076.30443065	5.18956026501	;
JU585	7104.04241667	5.68359708333	;
JU586	7115.54049318	3.1189838606	;
JU587	7111.42248635	4.7543956084	;
JU588	7077.7976466	2.60962165638	;
JU589	7037.29571759	4.93627083333	;
JU590	7096.41691299	2.73164048311	;
JU591	7032.46924796	4.17806821706	;
JU592	7111.08057405	5.2941735597	;
JU593	7095.34078513	6.59591679068	;
JU594	7100.89847525	4.17399648648	;
JU595	7101.45551153	5.34652513452	;
JU596	7080.7116372	1.95656173526	;
JU597	7119.23619044	1.79639530285	;
JU598	7094.78315023	1.21416350016	;
JU599	7129.67369044	2.85064530285	;
JU600	7051.5875	2.42295	;
JU601	7161.42708333	6.36739583333	;
JU602	7062.25259516	2.61197045096	;
JU603	7117.15346338	5.27450848884	;
JU604	7060.706413	2.33097492284	;
JU605	7083.88398726	4.8533411009	;
JU606	7118.53582926	4.4790575665	;
JU607	7049.30267361	2.6728353125	;
JU608	7059.5850463	3.60344952675	;
JU609	7082.5236757	1.92686147171	;
JU610	7124.54622349	3.07090527518	;
JU611	7072.59055556	1.56411111111	;
JU612	7149.87279604	4.34939305498	;
JU613	7090.63803396	3.19656133717	;
JU614	7092.51704133	4.02576357808	;
JU615	7076.47425277	2.72529172231	;
JU616	7056.28860918	4.7201351466	;
JU617	7033.77992863	4.67301655093	;
JU618	7114.73958333	2.05187916667	;
JU619	7077.42207305	2.63995463992	;
JU620	6995.4375	5.125	;
JU621	7113.70841077	2.66500416031	;
JU622	7089.24140343	3.09868468485	;
JU623	7091.80671296	3.99575925926	;
JU624	7133.20364563	2.74175423342	;
JU625	7134.59224868	5.150705194	;
JU626	7114.1422861	6.3832434807	;
JU627	7075.17411037	4.06171335391	;
JU628	7107.24699817	3.25261027176	;
JU629	7030.35389897	4.99566546989	;
JU630	7091.5573415	3.9173814075	;
JU631	7098.54745456	3.75960129622	;
JU632	7074.06610485	3.09947715276	;
JU633	7092.01315679	3.4889307484	;
JU634	7084.4763902	3.72235980701	;
JU635	7082.04808666	3.16172564622	;
JU636	7041.92358539	3.01904701646	;
JU637	7142.29156333	4.07356040013	;
JU638	7096.16359144	3.92710108539	;
JU639	7118.73461537	3.61043547102	;
JU640	7096.15756908	86.5814287432	;
JU641	7129.56354328	1.8201125753	;
JU642	7102.96715351	5.01839271636	;
JU643	7087.64610337	4.77415208169	;
JU644	7100.67537686	4.73430857508	;
JU645	7074.5	2.011	;
JU646	7147.90019097	4.74447992824	;
JU647	7069.22497734	2.77110802008	;
JU648	7109.13345366	3.88643801771	;
JU649	7107.00680556	2.4933094213	;
JU650	7058.68446181	4.20564467593	;
JU651	7109.84892747	4.44351658951	;
JU652	7080.31382485	5.37909569702	;
JU653	7134.19994641	2.59595002526	;
JU654	7150.60079218	0.933325576132	;
JU655	7091.4639392	1.72973234375	;
JU656	7096.01953893	3.81739190051	;
JU657	7087.83044488	3.4558515849	;
JU658	7091.36450418	4.05211595216	;
JU659	7141.97684077	0.475911639385	;
JU660	7088.9438802	3.11776333457	;
JU661	7094.81820628	2.71340000456	;
JU662	7083.73410101	2.75531982502	;
JU663	7092.30780864	6.48474253704	;
JU664	7066.01512136	3.69315904654	;
JU665	7100.0878554	6.38784991214	;
JU666	7105.66446991	4.63522904969	;
JU667	7089.32957408	13.232388366	;
JU668	7111.28267153	3.25814276602	;
JU669	7115.37278954	3.71024653035	;
JU670	7075.29914228	60.9772954235	;
JU671	7080.134807	4.60460798239	;
JU672	7081.12499355	49.180865866	;
JU673	7099.71370719	28.8938220193	;
JU674	7049.78130493	8.0424169515	;
JU675	7113.08093492	4.14727088624	;
JU676	7105.32746728	5.81155007736	;
JU677	7093.18680357	4.69802784471	;
JU678	7096.09331597	3.08384809028	;
JU679	7046.12954627	2.68777116129	;
JU680	7087.19159915	2.06030738812	;
JU681	7071.32246759	1.56197983218	;
JU682	7091.55658115	3.04909188529	;
JU683	7129.42697712	4.14499397593	;
JU684	7094.13621238	5.74729282407	;
JU685	7092.86607964	2.02809562042	;
JU686	7100.5316358	0.538692901235	;
JU687	7094.0826894	6.54719260139	;
JU688	7068.40713624	2.87278490971	;
JU689	7095.02427782	1.19924981944	;
JU690	7069.98461166	3.53299416977	;
JU691	7132.12357724	5.28673540548	;
JU692	7116.71064815	3.75198148148	;
JU693	7108.58456343	4.86259968409	;
JU694	7055.90287423	4.93092387635	;
JU695	7107.54248805	1.72711771588	;
JU696	7107.30311919	5.64046166826	;
JU697	7081.11341667	3.59359576235	;
JU698	7102.69225272	3.50867693269	;
JU699	7154.67096561	7.04306878307	;
JU700	7139.71325191	4.06021040847	;
JU701	7118.22692297	3.4080539802	;
JU702	7120.26883283	2.79359436459	;
JU703	7096.74039406	3.27334680838	;
JU704	7122.36116233	5.13753245882	;
JU705	7059.12761236	4.75900747462	;
JU706	7074.2071672	2.75521261049	;
JU707	7092.33125995	4.16463651123	;
JU708	7069.32263257	2.54180249499	;
JU709	7068.93008838	2.30290105518	;
JU710	7092.33125995	4.16463651123	;
JU711	7124.76371556	5.3668484665	;
JU712	7068.93008838	2.30290105518	;
JU713	7074.2071672	2.75521261049	;
JU714	7131.49880184	2.07584294751	;
JU715	7073.56231761	3.70600120969	;
JU716	7076.93048536	4.19898213793	;
JU717	7088.57805386	3.3851668272	;
JU718	7108.84345139	5.57499283796	;
JU719	7101.79141939	2.01857267098	;
JU720	7086.54450336	1.56218626386	;
JU721	7086.06890595	3.33398027521	;
JU722	7122.36371535	4.99534317624	;
JU723	7144.92118083	4.98734963084	;
JU724	7011.65665299	4.03001951823	;
JU725	7142.95694444	1.42361111111	;
JU726	7062.15966435	2.73330092593	;
JU727	7057.39408796	4.48513033333	;
JU728	7030.0197981	2.731961857	;
JU729	7071.39382811	3.12533423704	;
JU730	7073.28477238	2.00449691358	;
JU731	7073.44525732	2.71999860192	;
JU732	7070.5049784	3.18987569191	;
JU733	7106.60074116	4.39370200274	;
JU734	7078.41900456	2.64083467057	;
JU735	7077.99630166	4.78640569209	;
JU736	7049.37432936	3.3646783682	;
JU737	7062.95197724	2.6254882073	;
JU738	7057.92755546	3.07000981839	;
JU739	7070.93341135	4.0727666203	;
JU740	7118.30176376	2.19021952888	;
JU741	7065.11815253	5.11408497024	;
JU742	7124.27304687	4.70021171875	;
JU743	7111.37128709	3.24610006894	;
JU744	7118.16882716	2.04360864198	;
JU745	7097.54694444	2.42672657407	;
JU746	7081.51654501	2.82292162891	;
JU747	7076.55871649	3.05576468812	;
JU748	7131.73937783	5.54120747732	;
JU749	7114.60413578	1.7499235939	;
JU750	7104.90064497	3.72295256874	;
JU751	7042.26436245	2.35605994627	;
JU752	7115.3655351	1.65117042193	;
JU753	7065.30696426	2.65324751092	;
JU754	7083.86693432	2.23948890818	;
JU755	7082.04808666	3.16172564622	;
JU756	7063.11666667	2.73544014815	;
JU757	7086.10458333	3.91403833333	;
JU758	7075.82504118	3.68282395327	;
JU759	7121.03241922	5.16063314626	;
JU760	7055.4212752	3.46595955379	;
JU761	7070.82910643	5.68042181521	;
JU762	7132.62573785	2.30529027778	;
JU763	7099.9059127	4.87128214286	;
JU764	7126.38875041	5.19534302135	;
JU765	7100.89152521	1.8689738876	;
JU766	7132.15333333	7.01533333333	;
JU767	7076.46188933	3.29250060151	;
JU768	7115.35502923	7.10513992298	;
JU769	7068.42037037	2.58373518519	;
JU770	7072.98333398	2.7792047428	;
JU771	7099.58326157	2.3156081191	;
JU772	7100.76389094	5.45329866355	;
JU773	7098.81304963	7.40488079916	;
JU774	7092.53759584	58.094606692	;
JU775	7110.38455986	3.96376696245	;
JU776	7116.32014515	3.39684172291	;
JU777	7084.69408427	3.00933160064	;
JU778	7072.82855201	3.5676148938	;
JU779	7121.85893628	20.487384448	;
JU780	7056.89471836	3.3760514249	;
JU782	7123.28988199	5.03480264964	;
JU783	7067.8692735	2.33506306846	;
JU784	7109.02322482	5.1817977666	;
JU785	7066.93004501	2.34138024783	;
JU786	7131.63503051	5.42358148843	;
JU787	7079.78011558	3.60232740162	;
JU788	7076.25819112	3.22133302855	;
JU789	7143.92237083	4.96983597263	;
JU790	7061.24546682	3.01463734568	;
JU791	7045.75068263	0.89537273534	;
JU792	7120.9016905	3.22865038145	;
JU793	7105.93371651	3.685069403	;
JU794	7106.93493717	3.24406706349	;
JU795	7049.98653903	3.5035122174	;
JU796	7073.05245859	3.04384529893	;
JU797	7144.83810764	2.31122685185	;
JU798	7071.15115571	5.19096193586	;
JU799	7121.02928613	3.11120334601	;
JU800	7092.38588977	1.64412506173	;
JU801	7083.78625243	2.00926942101	;
JU802	7061.52392965	3.82112624005	;
JU803	7069.44557573	3.13451276115	;
JU804	7070.94328704	4.0039512037	;
JU805	7080.95928399	4.17253987069	;
JU806	7068.12333333	3.21291733333	;
JU807	7070.64053783	3.20087983804	;
JU808	7179.47071759	7.92449189815	;
JU809	7076.47074074	2.60195022222	;
JU810	7074.60534389	2.73796374848	;
JU811	7078.77145482	2.21867402165	;
JU812	7077.47777778	4.63465219907	;
JU813	7090.74334927	2.99771279823	;
JU814	7112.05175337	3.13131351723	;
JU815	7113.05007688	4.0307980884	;
JU816	7109.44305972	3.12153282893	;
JU817	7120.86016324	4.92221800549	;
JU818	7008.65	5.0796	;
JU819	7126.39537037	2.88977592593	;
JU820	7156.3540787	5.23204838889	;
JU821	7088.86300091	3.65803937162	;
JU822	7100.7024333	3.67557442819	;
JU823	7079.33845579	4.80401311046	;
JU824	7098.38335073	4.61654135351	;
JU825	7090.19648953	4.69867363267	;
JU826	7090.89134471	5.31060835121	;
JU827	7081.1423942	4.74567493222	;
JU828	7094.06579258	4.16986255031	;
JU829	7071.05244615	5.00329429609	;
JU830	7067.15797463	3.9784858631	;
JU831	7131.92498542	5.02911277518	;
JU832	7033.579818	3.54591897666	;
JU833	7088.20519861	4.71946893768	;
JU834	7139.91876619	4.57596404739	;
JU836	7067.83737322	2.16990393772	;
JU837	7067.72457051	2.94465773186	;
JU838	7083.50977915	4.95994723326	;
JU839	7087.15298593	5.11736156086	;
JU840	7066.41430063	2.74574315354	;
JU841	7101.45925045	4.62701407441	;
JU842	7082.20862943	2.20648197827	;
JU843	7088.84400705	4.11486383047	;
JU844	7106.12080084	5.59712291849	;
JU845	7063.86661727	3.59836093021	;
JU846	7079.9726674	2.16122940654	;
JU847	7114.98527656	2.5950649303	;
JU849	7022.95976884	2.434457491	;
JU850	7054.98185797	1.74291043981	;
JU851	7073.44525732	2.71999860192	;