[TITLE]
Generated synthetic network;

[JUNCTIONS]
;ID	Elev	Demand	Pattern
JU2	7063.81793539	5.54503032848	;
JU3	7092.86305608	5.19010423688	;
JU4	7090.44156379	3.76800388007	;
JU5	7064.06143996	2.63791738316	;
JU6	7087.65557887	3.62408740952	;
JU7	7106.33842783	3.25650031002	;
JU8	7069.79504933	4.4548343502	;
JU9	7084.3294729	5.72269524016	;
JU10	7028.05194444	6.3344625	;
JU11	7044.10276124	1.84009417989	;
JU12	7082.01867284	6.0901490162	;
JU13	7090.35397135	0.473927083333	;
JU14	7061.32470935	2.21423221235	;
JU15	7070.29623619	2.31485855902	;
JU16	7082.62723305	5.2281875414	;
JU17	7022.47546056	3.92109979355	;
JU18	7127.71024651	4.74890765878	;
JU19	7122.93898566	5.43304616534	;
JU20	7077.49579623	2.53284918898	;
JU21	7109.20218519	1.38923775926	;
JU22	7085.94624486	3.91486757571	;
JU23	7094.965222	5.27116968059	;
JU24	7087.27094833	3.87598472793	;
JU25	7092.95184331	3.81450575246	;
JU26	7097.85132403	4.08068643046	;
JU27	7097.37256603	4.35129690727	;
JU28	7090.38834362	2.8893037963	;
JU29	7103.11849993	4.65715155108	;
JU30	7102.78829813	4.61341391454	;
JU31	7084.13670773	3.14776259496	;
JU32	7083.2347409	3.40821582306	;
JU33	7083.68684285	4.14924173611	;
JU34	7082.7198048	3.92058311031	;
JU35	7085.17563291	6.54149808422	;
JU36	7083.75308025	4.09758835905	;
JU37	7086.56380978	3.16997285928	;
JU38	7072.3015012	3.1332199042	;
JU39	7056.51118834	2.25994377599	;
JU40	7086.29386982	8.63463051759	;
JU41	7117.04866258	6.10911048174	;
JU42	7035.12757973	5.96761152263	;
JU43	7096.07620216	3.65210811133	;
JU44	7093.27711834	4.47432997218	;
JU45	7075.21639749	4.33967389531	;
JU46	7074.18750523	5.81726950895	;
JU47	7054.59446123	5.34529369722	;
JU48	7079.87861019	6.06265577954	;
JU49	7135.50344246	2.36721627513	;
JU50	7144.13646733	2.56302789743	;
JU51	7063.43825693	4.41132681857	;
JU52	7108.08139478	3.56942816943	;
JU53	7077.79191282	3.62927345138	;
JU54	7093.25130208	3.93642708333	;
JU55	7107.69160234	3.92816980549	;
JU56	7138.34860098	1.53741929381	;
JU57	7108.00324588	6.2738298071	;
JU58	7130.14213445	1.40402872299	;
JU60	7155.78692273	1.68607133059	;
JU61	7116.91820313	3.7894734375	;
JU62	7147.34886643	21.1136742073	;
JU63	7106.42210921	3.86032410036	;
JU64	7079.2775696	2.49555654707	;
JU65	7108.61203927	0.537399070706	;
JU66	7148.83539558	5.55070720165	;
JU67	7045.73958333	2.68552083333	;
JU68	7143.36028264	2.07409399906	;
JU69	7092.23267688	5.6448915369	;
JU70	7083.5779767	2.0412017288	;
JU71	7137.01611874	0.24466468254	;
JU72	7123.99477904	3.33836693948	;
JU73	7095.29615926	5.54119676296	;
JU74	7121.40252287	0.0474107142857	;
JU75	7126.35348888	3.66620114337	;
JU76	7123.18859259	3.44036472222	;
JU77	7060.62482639	3.88760625	;
JU78	7106.77364265	4.1792938831	;
JU79	7070.33055556	5.70114444444	;
JU80	7083.52476546	4.48591323833	;
JU81	7094.2366504	1.30038460982	;
JU82	7093.2773266	1.25624312414	;
JU83	7129.01160687	2.18450808256	;
JU84	7116.89672628	0.353041760021	;
JU85	7100.1906029	1.68527296168	;
JU86	7080.25380163	3.36696407425	;
JU87	7123.62917257	2.71448716859	;
JU88	7124.83170874	3.86906753006	;
JU89	7056.65284722	2.58636541667	;
JU90	7092.83648031	4.51612348448	;
JU91	7088.85320055	3.21601630658	;
JU92	7097.41781669	6.43803608102	;
JU93	7084.61858254	0.684127383912	;
JU94	7081.11370495	3.05266973585	;
JU95	7102.56236372	3.37198251775	;
JU96	7112.58588194	4.22068208719	;
JU97	7090.38834362	2.8893037963	;
JU98	7114.8163366	4.68580986367	;
JU99	7078.35014414	3.43361455526	;
JU100	7097.68187397	5.83415811334	;
JU101	7093.72189291	3.64773121004	;
JU102	7106.27445115	5.43704657078	;
JU103	7070.29197407	4.19869364756	;
JU104	7119.52052222	3.4982124	;
JU105	7077.99880213	4.16121545085	;
JU106	7159.87680581	1.03976887644	;
JU107	7115.22547572	3.37878562797	;
JU108	7082.55224637	2.45352711346	;
JU109	7110.64274228	2.13503480864	;
JU110	7098.659375	2.00744305556	;
JU111	7102.12865935	3.47659644407	;
JU112	7090.54205247	3.08567476852	;
JU113	7079.11520371	1.47622813798	;
JU114	7127.32400174	2.36777459491	;
JU115	7070.49780247	5.32918294753	;
JU116	7087.08585253	4.81601884921	;
JU117	7082.43626887	5.13229815719	;
JU118	7071.40949877	1.70134409336	;
JU119	7077.2430319	1.25947679478	;
JU120	7126.69340745	3.5674150505	;
JU121	7049.21666667	1.46112222222	;
JU122	7127.82384259	3.62325933642	;
JU123	7103.90410362	3.92536894337	;
JU124	7070.21663773	3.40816180556	;
JU125	7059.46296296	6.11514814815	;
JU126	7085.18988051	3.78892072187	;
JU127	7086.10619817	3.54351769522	;
JU128	7102.43425926	5.80273671605	;
JU129	7100.58273521	1.60324500029	;
JU130	7062.13293566	90.0484097702	;
JU131	7080.2560376	40.2557263341	;
JU132	7097.65979503	4.38802907678	;
JU133	7093.61141914	7.97698994917	;
JU134	7082.43626887	5.13229815719	;
JU135	7078.97913366	16.1113332725	;
JU136	7091.30163051	3.59991976457	;
JU137	7097.10807292	4.17802604167	;
JU138	7098.38112595	3.78684727573	;
JU139	7085.54506263	2.49007461601	;
JU140	7114.7367077	7.10591129734	;
JU141	7071.79861611	3.07592965535	;
JU142	7073.42758951	2.12579909877	;
JU143	7105.09391214	4.35561122975	;
JU144	7057.28511836	3.99130019979	;
JU145	7089.05972222	2.26630727513	;
JU146	7108.42839506	2.14062246914	;
JU147	7113.38991255	3.48969835391	;
JU148	7072.37943343	4.93212998686	;
JU149	7057.28434606	0.756579456019	;
JU150	7046.43891461	7.42073791152	;
JU151	7094.90992284	5.46245117284	;
JU152	7039.59242698	2.61767804886	;
JU153	7109.35596296	3.07562222222	;
JU154	7122.21006944	6.17000777778	;
JU155	7053.57023672	3.6943605269	;
JU156	7107.99860622	4.11649273142	;
JU157	7144.14187354	4.96097852938	;
JU158	7068.47928571	4.79182733875	;
JU159	7134.42805556	2.153024	;
JU160	7099.52424769	2.38469306037	;
JU161	7083.11521715	5.59977529762	;
JU162	7110.88190945	4.20793896447	;
JU163	7102.48431143	4.36469059404	;
JU164	7120.50845822	3.82394633986	;
JU165	7124.40453319	1.35112940251	;
JU166	7131.7610386	7.32442468025	;
JU167	7091.0601703	3.80539948104	;
JU168	7096.7031746	5.65976084656	;
JU169	7104.75809945	4.93700904379	;
JU170	7078.57186459	3.7433101906	;
JU171	7119.77015724	2.41974519562	;
JU172	7110.77541238	3.25731637502	;
JU173	7119.06799769	2.21717222222	;
JU174	7114.33954172	2.39339330506	;
JU175	7063.17137674	3.99144042863	;
JU176	7032.2962037	3.18870583333	;
JU177	7103.23114605	2.09515185885	;
JU178	7038.12307099	1.0190787037	;
JU179	7047.76719577	2.82840873016	;
JU180	7158.60921489	1.27015293596	;
JU181	7072.52246439	3.58460478845	;
JU182	7083.65158669	3.6223619562	;
JU183	7073.71234351	3.23735425014	;
JU184	7056.28449973	3.73353099034	;
JU185	7115.5596172	3.92094418724	;
JU186	7080.77777778	3.75548888889	;
JU187	7058.44199829	2.50068717791	;
JU188	7089.15609308	3.56031639936	;
JU189	7113.24319616	2.81730713134	;
JU190	7133.03027778	5.63685705633	;
JU191	7071.06488403	3.01946076793	;
JU192	7104.78556217	1.0597907209	;
JU193	7094.08861111	3.7582262963	;
JU194	7088.59467406	3.31261232894	;
JU195	7101.99719161	3.80179603918	;
JU196	7086.66240023	3.54959078917	;
JU197	7130.28703704	7.80925925926	;
JU198	7127.94904762	2.34066785714	;
JU199	7086.5366099	4.2843070553	;
JU200	7100.30164349	3.84329743215	;
JU201	7074.16693937	4.96534210148	;
JU202	7097.65201761	2.9636449942	;
JU203	7080.34172901	2.92287474688	;
JU204	7070.4342672	2.67939928069	;
JU205	7088.63946504	4.4855847507	;
JU206	7124.11112923	3.08062270508	;
JU207	7071.79612984	4.29371847336	;
JU208	7097.47860093	2.23212316451	;
JU209	7084.38710733	3.28433679054	;
JU210	7062.10378086	6.79748996914	;
JU211	7077.53556858	5.67207618924	;
JU212	7110.00617025	2.3349956733	;
JU213	7106.73160924	14.8433445204	;
JU214	7076.12276235	5.73982035751	;
JU215	7054.29357798	78.733648239	;
JU216	7088.1159612	5.62528703704	;
JU217	7087.64880167	5.03428486732	;
JU218	7112.8187806	9.2725300026	;
JU219	7065.34528091	3.49730161613	;
JU220	7049.58233377	32.2838717611	;
JU221	7049.96195291	89.8200087494	;
JU222	7095.94661458	4.03373958333	;
JU223	7078.85416667	3.06951666667	;
JU224	7095.70854618	3.30594733672	;
JU225	7088.443125	2.66918791667	;
JU226	7087.33552469	4.02683160494	;
JU227	7103.97426314	3.51317063219	;
JU228	7141.63936592	5.91643187772	;
JU229	7082.74101324	19.668715929	;
JU230	7099.66012231	11.6502756689	;
JU231	7064.48358542	46.1720837528	;
JU232	7077.39343014	13.1473082016	;
JU233	7121.55166667	3.50298111111	;
JU234	7117.26161975	3.36352170864	;
JU235	7090.66133295	6.573403125	;
JU236	7130.15565866	3.20905609656	;
JU237	7128.65573958	3.17179149059	;
JU238	7095.97685185	5.71215740741	;
JU239	7092.02249588	5.47300738169	;
JU240	7091.9010416	4.95983460061	;
JU241	7085.93962548	5.08216619413	;
JU242	7115.80959198	3.31350820864	;
JU243	7132.48013575	2.61152430965	;
JU244	7112.37630413	3.70701993322	;
JU245	7091.28910322	4.95867725187	;
JU246	7085.04051235	3.43184372391	;
JU247	7053.03945546	2.23403917975	;
JU248	7103.55391778	3.86803936403	;
JU249	7090.22727904	4.6875725748	;
JU250	7072.27540813	3.30309467931	;
JU251	7076.64559949	3.89071780102	;
JU252	7138.90297619	3.08027331349	;
JU253	7030.8119657	1.43450794673	;
JU254	7039.77286756	1.27210710468	;
JU255	7086.56712963	6.38723148148	;
JU256	7105.78589616	4.64154129464	;
JU257	7124.38888889	8.434	;
JU258	7102.40771142	2.46148925386	;
JU259	7093.57643877	6.12063088988	;
JU260	7088.14534144	1.582725	;
JU261	7100.30164349	3.84329743215	;
JU262	7115.16628889	5.43532955556	;
JU263	7105.32806844	4.47764511894	;
JU264	7124.87904383	2.85807454424	;
JU265	7140.01076389	5.03573229167	;
JU266	7136.62259259	4.93030189815	;
JU267	7087.18190853	3.99493081615	;
JU268	7051.68620317	1.8684672	;
JU269	7136.46083333	5.97002083333	;
JU270	7066.88216692	6.33710986368	;
JU271	7068.87712191	2.57690486111	;
JU272	7060.01531214	4.44169807289	;
JU273	7090.24575103	6.26070545267	;
JU274	7115.98522397	3.85445649986	;
JU275	7120.97591829	3.30063965278	;
JU276	7059.78317564	3.0201734809	;
JU277	7047.4	6.30559583333	;
JU278	7100.48987269	3.71280887346	;
JU279	7100.50793467	5.99002947531	;
JU280	7082.61060761	5.04085649117	;
JU281	7086.18763411	3.6083650463	;
JU282	7099.14715773	2.759497647	;
JU283	7090.89005294	2.69118861056	;
JU284	7074.71409869	5.05616632067	;
JU285	7071.24239879	3.88372125312	;
JU286	7086.40043102	5.34903651295	;
JU287	7092.34728553	2.70240359033	;
JU288	7106.25036325	3.35812779589	;
JU289	7072.74533726	4.30512217923	;
JU290	7133.56414918	3.77809557748	;
JU291	7068.70933391	5.93209586998	;
JU292	7084.50991164	2.97216596277	;
JU293	7111.35881153	4.49806706037	;
JU294	7106.58417298	4.75352052028	;
JU295	7039.19705247	6.07674441872	;
JU296	7051.69792695	6.48257427984	;
JU297	7081.48495563	6.09610698302	;
JU298	7064.42295763	5.78755825553	;
JU299	7046.78090638	6.48548358539	;
JU300	7050.77678082	5.78530605662	;
JU301	7054.58603395	3.96322183642	;
JU302	7076.06725296	2.36753528489	;
JU303	7056.92074224	3.83186793981	;
JU304	7088.55895632	4.39973681053	;
JU305	7132.7197	4.78827771111	;
JU306	7117.04866258	6.10911048174	;
JU307	7141.92712731	3.62983703395	;
JU308	7139.64454641	6.27858480473	;
JU309	7111.13186674	5.20999989748	;
JU310	7096.31612141	2.35932684939	;
JU311	7099.14715773	2.759497647	;
JU312	7096.67484387	2.44545668903	;
JU313	7089.11824558	5.74077909348	;
JU314	7093.27711834	4.47432997218	;
JU315	7087.78654661	6.44580057626	;
JU316	7124.38897367	5.83191774685	;
JU317	7087.58240741	1.78780185185	;
JU318	7084.04783951	3.45400617284	;
JU319	7111.2527444	4.03758457627	;
JU320	7065.55953833	2.17113574193	;
JU321	7087.82546808	3.79077714932	;
JU322	7068.65213867	4.48188414105	;
JU323	7080.92845213	2.97625009002	;
JU324	7080.32766079	4.36148052489	;
JU325	7136.28925438	4.63359027429	;
JU326	7070.40958815	5.42460157967	;
JU327	7099.68232522	5.63219129293	;
JU328	7059.09441623	3.16730328559	;
JU329	7072.09027778	5.79306111111	;
JU330	7102.41517284	4.60607469136	;
JU331	7144.00711476	2.15945322769	;
JU332	7067.87020455	3.76349930201	;
JU333	7096.16764508	3.66862598812	;
JU334	7130.41739136	3.53182747406	;
JU335	7086.83298197	3.74177620444	;
JU336	7081.22266983	2.06184420706	;
JU337	7081.93302396	5.99433736111	;
JU338	7127.70610069	3.43022634722	;
JU339	7066.8698788	1.70570422887	;
JU340	7111.69880952	4.83784365079	;
JU341	7137.09935925	5.07937322852	;
JU342	7084.706507	4.88214944509	;
JU343	7143.66086227	2.02800428241	;
JU344	7137.83097549	1.79380688713	;
JU345	7116.17270526	6.35976816594	;
JU346	7080.43263889	6.08948070988	;
JU347	7122.74246914	4.69324660012	;
JU348	7054.13524241	28.810033016	;
JU349	7087.05853934	1.89630874004	;
JU350	7074.3713831	5.79971296296	;
JU351	7055.58049479	4.46716052083	;
JU352	7053.74105553	3.2352174387	;
JU353	7130.0870829	2.20349334953	;
JU354	7114.04259259	2.58428148148	;
JU355	7116.63447972	6.50635229277	;
JU356	7096.67484387	2.44545668903	;
JU357	7141.04441211	5.68228236332	;
JU358	7102.39447939	3.00927407214	;
JU359	7102.01986368	2.84697061802	;
JU360	7111.0038682	3.21408893899	;
JU361	7130.85587963	2.1396728057	;
JU362	7140.20548611	1.85351695841	;
JU363	7048.46165365	2.84034393808	;
JU364	7098.68695754	2.44833828149	;
JU365	7056.26689287	5.67491603793	;
JU366	7106.3783343	3.7606167284	;
JU367	7056.43077029	4.99215487441	;
JU368	7105.26185185	1.31200222222	;
JU369	7094.79375579	3.73114540895	;
JU370	7080.98268519	4.4459212963	;
JU371	7069.41983314	3.45999411073	;
JU372	7073.12062901	5.21947450123	;
JU373	7101.07774611	3.58042902428	;
JU374	7075.49489691	4.29808290509	;
JU375	7087.63676459	4.17771357333	;
JU376	7030.09114583	3.79157291667	;
JU377	7122.75055238	2.90756554131	;
JU378	7088.45570889	3.21196974682	;
JU379	7109.86125	3.77992271605	;
JU380	7099.05355203	4.17134420378	;
JU381	7076.28425062	3.43828114327	;
JU382	7067.82181984	4.5035526556	;
JU383	7102.49290836	5.29623688316	;
JU384	7102.63238575	3.32795254322	;
JU385	7098.84883792	3.37225739817	;
JU386	7064.42798354	2.44961316872	;
JU387	7064.42798354	2.44961316872	;
JU388	7102.45509259	2.64966481481	;
JU389	7140.09185601	4.52415149218	;
JU390	7130.18652926	3.52012886284	;
JU391	7102.33584231	4.01675173698	;
JU392	7112.43504437	3.8042776466	;
JU393	7159.7525043	1.84497572632	;
JU394	7077.37624745	3.61716928333	;
JU395	7067.34986704	2.70816959068	;
JU396	7037.65715728	0.836490850051	;
JU397	7051.07291667	0.167583333333	;
JU398	7081.48008892	3.40460690933	;
JU399	7099.9220679	5.05449074074	;
JU400	7105.73322724	6.86385520833	;
JU401	7125.94872428	2.54890238683	;
JU402	7125.10101936	4.55821336444	;
JU403	7135.65203704	3.99333902006	;
JU404	7088.59467406	3.31261232894	;
JU405	7123.9366151	3.89260152116	;
JU406	7080.34172901	2.92287474688	;
JU407	7078.67863807	4.85389699527	;
JU408	7084.79375	6.10069058642	;
JU409	7086.48095186	2.1258598276	;
JU410	7112.26666667	4.74909037037	;
JU411	7111.02540105	5.07991027467	;
JU412	7067.55243974	1.18299313345	;
JU413	7083.66992555	3.06598791085	;
JU414	7110.44089527	4.80024368765	;
JU415	7090.79058813	4.12630064121	;
JU416	7117.46454193	3.64598968518	;
JU417	7105.58012501	4.10232104412	;
JU418	7070.19380893	1.94696249711	;
JU419	7084.0129294	3.1272669525	;
JU420	7054.58603395	3.96322183642	;
JU421	7081.3124985	4.79962764853	;
JU422	7076.60730361	5.36520380556	;
JU423	7128.38688298	3.17209543457	;
JU424	7107.01568052	3.10529324403	;
JU425	7101.62115345	4.75843326593	;
JU426	7141.82346422	3.81321497033	;
JU427	7093.64500343	5.08683719479	;
JU428	7079.38406459	2.46927582003	;
JU429	7097.54755264	4.44573985842	;
JU430	7113.80732407	3.82748010494	;
JU431	7122.89486183	3.47836454742	;
JU432	7071.14595336	4.13947524863	;
JU433	7095.14710507	5.33436627984	;
JU434	7099.25240575	4.52779339727	;
JU435	7083.71021283	3.5442648894	;
JU436	7104.235	4.549485	;
JU437	7102.76064095	3.12514079459	;
JU438	7095.34329228	3.89014350076	;
JU439	7124.03870566	3.98907867615	;
JU440	7118.70252353	4.56856213764	;
JU441	7096.36818378	2.92012051219	;
JU442	7086.20114295	2.55763667774	;
JU443	7111.78512723	3.4587491373	;
JU444	7125.21759348	3.33161116064	;
JU445	7098.6187116	3.88213437353	;
JU446	7093.96715871	4.61696276898	;
JU447	7059.58427152	2.86389836618	;
JU448	7082.44546904	4.83915169496	;
JU449	7145.52955849	5.36005023376	;
JU450	7123.40148127	2.97685251427	;
JU451	7079.94166667	6.64766666667	;
JU452	7067.37780208	1.37950658333	;
JU453	7124.93180288	0.726164446325	;
JU454	7086.14323006	2.98463725381	;
JU455	7063.21458431	3.19015755924	;
JU456	7152.8625077	4.7174004468	;
JU457	7105.32342664	3.3219992315	;
JU458	7049.61041409	2.51658686214	;
JU459	7077.25649105	2.94955771565	;
JU460	7037.2709465	0.871180843621	;
JU461	7107.11920064	4.63438018065	;
JU462	7069.11772975	4.01776552083	;
JU463	7038.58455129	3.66604447483	;
JU464	7055.76892361	3.35162847222	;
JU465	7011.46948736	2.70120864776	;
JU466	7086.5061777	3.38812144027	;
JU467	7054.7869213	4.87517337963	;
JU468	7057.87105556	3.09247533333	;
JU469	7120.53973765	5.17096419753	;
JU470	7065.47771743	3.5420481551	;
JU471	7120.53184775	4.83492750283	;
JU472	7044.90679366	2.48051647762	;
JU473	7044.76277124	2.4428172981	;
JU474	7027.31913757	2.63094573881	;
JU475	7044.76277124	2.4428172981	;
JU476	7097.20761229	4.52656874612	;
JU477	7089.64599127	3.08302712153	;
JU478	7068.18021087	2.27553095203	;
JU479	7126.26111941	2.66670816881	;
JU480	7060.85759838	3.5199821713	;
JU481	7108.18078194	3.8592548595	;
JU482	7124.89677725	2.79906506536	;
JU483	7134.74103332	3.44638977277	;
JU484	7074.95270919	2.51779213502	;
JU485	7129.66604816	4.87836474868	;
JU486	7103.68864707	4.11550564695	;
JU487	7130.41610756	4.38333279183	;
JU488	7130.41610756	4.38333279183	;
JU489	7096.82789136	1.88952604938	;
JU490	7123.15279503	0.473734189065	;
JU491	7107.14612593	4.41397931828	;
JU492	7078.86031775	5.70658759877	;
JU493	7096.44366804	3.22674495181	;
JU494	7081.82750721	3.27225961852	;
JU495	7120.36255297	3.73766809343	;
JU496	7072.59721934	4.05145188644	;
JU497	7108.59599863	4.12178083558	;
JU498	7118.83810612	1.28626132	;
JU499	7099.37769925	3.3763822868	;
JU500	7093.18612346	1.77464401205	;
JU501	7044.96762646	1.47421608889	;
JU502	7110.2308735	3.69888910693	;
JU503	7086.15369575	2.71684672345	;
JU504	7109.30265852	3.53168949318	;
JU505	7130.90005642	3.67040759549	;
JU506	7145.5335034	5.09639138376	;
JU507	7076.21010417	3.88374219907	;
JU508	7073.03450879	2.67691021117	;
JU509	7097.46826389	3.85423840342	;
JU510	7109.10712554	5.77252376337	;
JU511	7059.56790123	2.24256790123	;
JU512	7123.16454439	2.6124903542	;
JU513	7124.69458159	4.02043312954	;
JU514	7127.67280247	2.81559629012	;
JU515	7108.66823591	4.45709736751	;
JU516	7125.4386172	5.83715106146	;
JU517	7134.86348659	0.198846497295	;
JU518	7083.62417108	3.97755878968	;
JU519	7084.03504657	3.12483079125	;
JU520	7084.31561053	2.13147618634	;
JU521	7069.54741223	3.33730415316	;
JU522	7112.47294633	4.73069577787	;
JU523	7075.791091	3.29276986806	;
JU524	7096.92758681	3.67335491898	;
JU525	7095.11727913	3.2978048206	;
JU526	7097.85634957	4.5198753312	;
JU527	7116.18100903	3.75061733163	;
JU528	7100.64987127	4.19082369544	;
JU529	7125.31745542	6.10979753086	;
JU530	7148.87701065	2.46442116735	;
JU531	7166.34380925	2.10825189012	;
JU532	7072.5707401	2.6817104231	;
JU533	7094.01858796	2.64521360807	;
JU534	7119.62920329	3.70224755226	;
JU535	7114.43541385	5.27473163676	;
JU536	7086.18085764	4.35286760417	;
JU537	7125.6171156	2.6942750928	;
JU538	7084.45880787	4.109778125	;
JU539	7064.22222222	3.25077777778	;
JU540	7103.58951806	4.79020805972	;
JU541	7057.64934776	2.44137663598	;
JU542	7136.86209894	3.76911110905	;
JU543	7063.38713899	3.68195162211	;
JU544	7111.87916922	6.73780230864	;
JU545	7083.09380102	6.60916072677	;
JU546	7054.86653334	5.3796339754	;
JU547	7175.02116402	7.63623611111	;
JU548	7062.23127229	4.76235314043	;
JU549	7075.21639749	4.33967389531	;
JU550	7068.30648668	4.62844898342	;
JU551	7100.90164385	3.60857968973	;
JU552	7093.49516953	3.59837032551	;
JU553	7103.17540517	3.93228604543	;
JU554	7084.83819187	4.62056869856	;
JU555	7075.47151708	2.47394904387	;
JU556	7090.94902603	4.16298100903	;
JU557	7094.33340021	3.68762753258	;
JU558	7065.28039111	3.68578191537	;
JU559	7087.86702103	5.39794961806	;
JU560	7085.50402263	3.61093961934	;
JU561	7092.80555481	3.42681889778	;
JU562	7096.87711001	5.36803969669	;
JU563	7082.51355475	3.89665673829	;
JU564	7082.27442387	5.44346770833	;
JU565	7075.64746349	2.65778592326	;
JU566	7120.97591829	3.30063965278	;
JU567	7167.82491644	2.52928169415	;
JU568	7127.27642482	4.42485826341	;
JU569	7103.0191861	5.69897029035	;
JU570	7103.66382005	4.4376644905	;
JU571	7111.83040365	3.70009891493	;
JU572	7081.43421829	3.39883532475	;
JU573	7159.68060717	5.68535072706	;
JU574	7124.45839268	5.6474396342	;
JU575	7056.12077628	2.07201871762	;
JU576	7085.55113138	1.46903193955	;
JU577	7029.3703207	1.22662601755	;
JU578	7170.73611111	2.92305555556	;
JU579	7115.13740018	2.14175147684	;
JU580	7097.18833333	4.76135185185	;
JU581	7145.63317238	2.32440715101	;
JU582	7070.95714286	3.86017460317	;
JU583	7095.6266516	5.11119555158	;
JU584	7071.94724151	5.42424575617	;
JU585	7112.02695672	2.99270038807	;
JU586	7095.5763078	2.95566714097	;
JU587	7125.40327846	2.36890150761	;
JU588	7127.77215192	3.03819756207	;
JU589	7091.26667005	3.09743429475	;
JU590	7103.43419872	3.66333002726	;
JU591	7101.87391209	2.88233826903	;
JU592	7099.32622525	5.69884661535	;
JU593	7110.64274228	2.13503480864	;
JU594	7051.18372396	2.99516704282	;
JU595	7109.70994868	2.94399262298	;
JU596	7082.55287738	5.81710737558	;
JU597	7128.19870777	3.58740645191	;
JU598	7106.42462834	4.12178264275	;
JU599	7059.85818188	89.0186083302	;
JU600	7086.03592231	2.4657394987	;
JU601	7063.50348572	2.76257497825	;
JU602	7132.25087802	5.75637257086	;
JU603	7057.0125	0.050275	;
JU604	7104.01837461	4.7926571013	;
JU605	7102.12161365	5.39798425941	;
JU606	7172.76805556	4.39654777778	;
JU607	7085.16032407	4.144415625	;
JU608	7090.1330713	1.91950275463	;
JU609	7127.8845454	1.77452497428	;
JU610	7054.36160285	4.05354918229	;
JU611	7078.48331835	1.85489971283	;
JU612	7079.95188308	5.59447795898	;
JU613	7052.68981481	1.23983333333	;
JU614	7098.98894928	3.64495570898	;
JU615	7111.4104919	3.60424387876	;
JU616	7076.54879342	3.54749136831	;
JU617	7078.69421819	12.5596913194	;
JU618	7130.58539299	3.27899196738	;
JU619	7106.94089981	3.51298785761	;
JU620	7141.51528354	5.12796685028	;
JU621	7073.44360079	4.15888880138	;
JU622	7132.81784828	4.82964101481	;
JU623	7092.77626369	3.46311546841	;
JU624	7043.86199369	0.868642990719	;
JU625	7101.04862433	3.99337398324	;
JU626	7113.53361412	4.15129063173	;
JU627	7132.45690989	2.22043814319	;
JU628	7102.03793199	4.09979105462	;
JU629	7127.51214691	4.60982103515	;
JU630	7126.31907396	4.56606112513	;
JU631	7064.32098765	2.28409876543	;
JU632	7071.4345679	2.35099639918	;
JU633	7102.70831255	5.36378514227	;
JU634	7095.94063892	3.96411142126	;
JU635	7054.03217841	1.29460932209	;
JU636	7078.60186033	2.89128484733	;
JU637	7125.97038623	4.80978358	;
JU638	7097.389774	2.31629747351	;
JU639	7078.85416667	3.06951666667	;
JU640	7083.25649832	5.63031661454	;
JU641	7157.54972349	3.9969940581	;
JU642	7107.41227886	4.85016154337	;
JU643	7065.47771743	3.5420481551	;
JU644	7053.17254167	0.496343888889	;
JU645	7068.50897213	2.44769593251	;
JU646	7106.07138002	3.43548193364	;
JU647	7143.87138889	5.67814277778	;
JU648	7066.88558189	3.36159245023	;
JU649	7121.60152649	2.86031888401	;
JU650	7106.00898196	5.7735703342	;
JU651	7117.38316379	2.83590326466	;
JU652	7124.56116678	3.0783330843	;
JU653	7099.4709993	2.98349768108	;
JU654	7104.34546197	2.79234529549	;
JU655	7124.56116678	3.0783330843	;
JU656	7121.60152649	2.86031888401	;
JU657	7104.34546197	2.79234529549	;
JU658	7120.81767632	2.88235612662	;
JU659	7118.62215542	4.92135596867	;
JU660	7062.16013971	3.44949389749	;
JU661	7087.29252627	5.81793737222	;
JU662	7135.64689475	4.3175921073	;
JU663	7118.85194444	3.95426	;
JU664	7103.43864612	3.43784591023	;
JU665	7099.98227495	3.13060492541	;
JU666	7060.21500149	92.0739718472	;
JU667	7103.38565789	2.4909500845	;
JU668	7103.79061942	4.04113710229	;
JU669	7056.81638719	5.25381460778	;
JU670	7086.83298197	3.74177620444	;
JU671	7132.95791113	2.81166900175	;
JU672	7103.20227895	2.95460606667	;
JU673	7063.12041001	5.29402505787	;
JU674	7085.04545088	3.18490672481	;
JU675	7075.57060642	3.01209757723	;
JU676	7115.48633347	3.30201394175	;
JU677	7078.47292757	2.98478421089	;
JU678	7085.49295267	6.038606893	;
JU679	7119.29788213	4.56952899471	;
JU680	7101.10063051	3.05734968842	;
JU681	7119.07286622	3.17698119153	;
JU682	7050.36685494	6.46192556327	;
JU683	7078.54563837	4.03270904474	;
JU684	7115.12953958	0.265541388889	;
JU685	7117.10030864	4.30484423868	;
JU686	7091.03569781	4.48997721276	;
JU687	7084.25757497	4.24046104295	;
JU688	7109.45804012	4.76002303964	;
JU689	7084.29687122	2.93042984343	;
JU690	7090.48730671	4.04200650656	;
JU691	7062.27168542	2.94914056057	;
JU692	7103.47212577	5.14601801337	;
JU693	7098.74162694	5.78442417076	;
JU694	7085.88769162	4.14875501543	;
JU695	7090.01725116	4.33310016265	;
JU696	7119.89174208	2.62051322583	;
JU697	7065.56635802	2.07722222222	;
JU698	7111.32270907	3.08829744698	;
JU699	7101.15743924	1.96008499319	;
JU700	7146.08255128	2.18152786587	;
JU701	7054.90162037	2.39408333333	;
JU702	7051.5093179	5.02518644444	;
JU703	7102.52750215	2.78892830316	;
JU704	7131.52001709	5.41632549603	;
JU705	7129.00474396	3.53027169965	;
JU706	7090.71945441	3.92408280232	;
JU707	7082.75257153	5.38761429167	;
JU708	7099.4015625	5.18276736111	;
JU709	7097.96767795	2.38180191406	;
JU710	7075.20156458	4.53647654562	;
JU711	7117.01041667	3.51000416667	;
JU712	7105.28995595	2.3071480813	;
JU713	7070.48191398	4.45314712055	;
JU714	7098.9674568	3.69793901479	;
JU715	7111.553125	4.91603472222	;
JU716	7070.19032858	2.84674146599	;
JU717	7086.32522673	3.71655008525	;
JU718	7085.62439012	4.56528305995	;
JU719	7084.8107647	5.98248180556	;
JU720	7083.91772064	4.75944443287	;
JU721	7076.78945134	6.06838734259	;
JU722	7072.07479592	4.18675974416	;
JU723	7091.99611832	3.82111651326	;
JU724	7075.65788397	6.11212905093	;
JU725	7075.56531636	5.7837504784	;
JU726	7129.98997991	4.78873766317	;
JU727	7132.27788572	0.656346746884	;
JU728	7079.29740493	4.29022919328	;
JU729	7086.6994213	2.13706828704	;
JU730	7081.87731752	3.09368673941	;
JU731	7067.37297454	3.50139074074	;
JU732	7068.70927385	3.75062300082	;
JU733	7081.43952546	5.86910833333	;
JU734	7077.03056155	5.67959027357	;
JU735	7029.72223112	1.15687840405	;
JU736	7083.89613452	5.20395004111	;
JU737	7062.88262692	1.57708494042	;
JU738	7056.16481096	3.33181356867	;
JU739	7058.73958333	1.23801666667	;
JU740	7063.4805919	1.30029108333	;
JU741	7103.09826389	3.61615625	;
JU742	7083.52474103	1.22523784247	;
JU743	7089.08567247	4.92642641347	;
JU744	7072.14926042	1.27677325	;
JU745	7063.4827304	4.05489246546	;
JU746	7080.27387753	4.23573571302	;
JU747	7112.50266642	3.51174945083	;
JU748	7121.75018091	4.06108375763	;
JU749	7077.45039368	2.97109295418	;
JU750	7098.36140028	3.13153514702	;
JU751	7012.91666667	3.04290277778	;
JU752	7073.42758951	2.12579909877	;
JU753	7049.29586751	1.72611159111	;
JU754	7117.35684616	0.606475673853	;
JU755	7057.9047619	4.43975238095	;
JU756	7073.63017375	3.31671757259	;
JU757	7145.26810454	4.12065811012	;
JU758	7115.28308546	5.34473950299	;
JU759	7120.77726337	3.98771886145	;
JU760	7100.93041152	4.2160654321	;
JU761	7031.18823736	3.45533364776	;
JU762	7124.81056076	4.15649685376	;
JU763	7110.02926955	6.39059475309	;
JU764	7084.00280424	4.26712240912	;
JU765	7101.54460134	6.22620280864	;
JU766	7094.05751333	5.72539002752	;
JU767	7097.41781669	6.43803608102	;
JU768	7050.625	5.27125	;
JU769	7124.60804496	5.17241794928	;
JU770	7066.21315576	4.57873718605	;
JU771	7064.09965278	4.23790625	;
JU772	7112.27454401	3.59523389909	;
JU773	7060.87186458	6.08263054977	;
JU774	7095.44391676	2.76294054571	;
JU775	7059.43158558	5.14584456397	;
JU776	7099.44464168	3.11918586351	;
JU777	7095.4241723	4.6392134327	;
JU778	7097.31818625	4.20610621441	;
JU779	7170.47093621	6.24202978395	;
JU780	7088.68834138	26.9063680096	;
JU781	7118.4937242	3.74782650817	;
JU782	7144.16585185	7.75879259259	;
JU783	7076.02697313	2.83170426518	;
JU784	7076.72409849	3.20697387879	;
JU785	7109.10712554	5.77252376337	;
JU786	7115.28284877	2.0403019186	;
JU787	7109.49138084	5.20668470113	;
JU788	7086.54074074	3.26601604938	;
JU789	7152.83930363	7.53364189815	;
JU790	7029.3703207	1.22662601755	;
JU791	7100.68932033	4.31333978479	;
JU792	7115.40185185	0.357059259259	;
JU793	7083.91772064	4.75944443287	;
JU794	7076.78945134	6.06838734259	;
JU795	7084.8107647	5.98248180556	;
JU796	7085.82007502	3.84733149032	;
JU797	7186.25972222	5.5947037037	;
JU798	7098.84163612	4.55789297197	;
JU799	7123.07495001	4.60091875739	;
JU800	7077.64843024	2.08772847744	;
JU801	7126.88513889	2.32685865079	;
JU802	7090.21636556	4.66759695607	;
JU803	7088.70418004	4.57917004267	;
JU804	7114.96236607	4.07171394249	;
JU805	7108.15484825	0.0573939814815	;
JU806	7130.15291823	4.38426509267	;
JU807	7119.23857141	2.85501282763	;
JU808	7074.71963859	9.88660433783	;
JU809	7075.03241917	2.26432440696	;
JU810	7087.53291782	1.27594287403	;
JU811	7088.26091604	4.95694162159	;
JU812	7083.9192716	1.53684184568	;
JU813	7084.29177345	4.58915254893	;
JU814	7090.36722235	2.26548252461	;
JU815	7112.80071632	4.92038363085	;
JU816	7073.31614489	3.08767373249	;
JU817	7031.83112703	4.39567824074	;
JU818	7070.16898638	4.74956281835	;
JU819	7074.87785764	4.19762474108	;
JU820	7138.50253459	5.8031433561	;
JU821	7073.02691172	2.44048064261	;
JU822	7084.46812037	4.59957712214	;
JU823	7112.42002861	4.90689901245	;
JU824	7102.23285541	4.84502838736	;
JU825	7126.16812741	6.06939697778	;
JU826	7093.8411105	2.65415037118	;
JU827	7123.54591382	1.20957469048	;
JU828	7097.41903764	1.73048501629	;
JU829	7094.03226723	2.29959618227	;
JU830	7091.26761624	5.05331092866	;
JU831	7093.7545038	4.71163499432	;
JU832	7083.27821982	2.05000224633	;
JU833	7077.53556858	5.67207618924	;
JU834	7101.00548323	4.98934247409	;
JU835	7082.47847228	5.20695221171	;
JU836	7111.76145076	2.74983262932	;
JU837	7044.52960207	0.87491823064	;
JU838	7118.89315498	4.69269316326	;
JU839	7091.33596885	2.68425476466	;
JU840	7074.65102701	4.43450422315	;
JU841	7060.31571337	1.3900211468	;
JU842	7080.48529005	5.33200758796	;
JU843	7178.14090971	5.3734359551	;