[TITLE]
Generated synthetic network;

[JUNCTIONS]
;ID	Elev	Demand	Pattern
JU1	7075.36653646	3.54406206597	;
JU2	7037.35625	1.81764814815	;
JU3	7062.28680556	5.9734825	;
JU4	7080.36706983	5.29003460899	;
JU5	7083.64901138	4.00177581935	;
JU7	7052.06180556	2.64458020833	;
JU8	7041.875	3.15276388889	;
JU9	7107.34053819	5.53034108796	;
JU10	7064.31085069	3.09996063368	;
JU11	7087.38829534	3.63283826998	;
JU12	7068.05239931	3.2448791466	;
JU13	7043.21518229	3.11731822917	;
JU14	7070.57304423	4.21873110946	;
JU15	7087.90799077	3.73424162565	;
JU16	7144.10763529	1.80248915295	;
JU17	7066.59562738	4.77809736801	;
JU18	7071.85699565	2.5974694875	;
JU19	7104.54168879	5.53743563219	;
JU20	7070.40762687	5.64953611072	;
JU21	7098.82	4.061	;
JU22	7091.31897893	3.15643405344	;
JU23	7114.49981346	2.66204227338	;
JU24	7114.03053024	3.7748036114	;
JU25	7109.77938386	4.05844123113	;
JU26	7077.65506431	3.5383668284	;
JU27	7065.16749142	4.297884383	;
JU28	7110.79754994	3.36915398679	;
JU29	7109.37753879	3.26651014377	;
JU30	7101.94984249	3.42881139458	;
JU31	7074.43422767	3.0135576217	;
JU32	7058.21292153	3.49128480407	;
JU33	7071.17772386	6.47085079753	;
JU34	7070.29900733	6.02936996257	;
JU35	7058.71408477	4.5102642833	;
JU36	7056.20521479	5.34491020853	;
JU37	7053.484375	4.1560625	;
JU38	7046.95025198	5.32988323045	;
JU39	7077.49354233	2.52275549958	;
JU40	7076.23610078	5.4957627974	;
JU41	7053.4953724	3.8637759786	;
JU42	7084.07012023	2.67087753983	;
JU43	7121.75185917	3.39134979502	;
JU44	7081.21920969	2.09317340975	;
JU45	7056.86983349	4.42804150767	;
JU46	7103.90260919	4.56435765793	;
JU47	7095.00214627	4.50167610696	;
JU48	7086.74427042	5.04155063851	;
JU49	7102.76934758	3.86142333454	;
JU50	7103.42379965	3.70541528511	;
JU51	7087.63837596	3.66208046693	;
JU52	7059.43076738	4.30821637376	;
JU53	7093.98760417	3.17380974537	;
JU54	7082.53875932	1.99046728434	;
JU55	7054.49638672	4.44434375	;
JU56	7065.92018984	3.27746378285	;
JU57	7120.69888735	3.52321585974	;
JU58	7043.78528501	4.52237487847	;
JU59	7089.14177836	3.63215141474	;
JU60	7071.78495732	4.37861770994	;
JU61	7064.56957417	4.19755531416	;
JU62	7079.94494048	3.57178869048	;
JU63	7114.81277927	5.28369400346	;
JU64	7106.40471656	5.32891891842	;
JU65	7129.64814815	6.59905185185	;
JU66	7121.07519065	5.09578009002	;
JU67	7065.32496238	4.61916748148	;
JU68	7048.2368017	4.23602616512	;
JU69	7075.17546046	4.07026078798	;
JU70	7070.33264094	3.0637742506	;
JU71	7058.9757715	2.80537860636	;
JU72	7074.88578704	3.57186472222	;
JU73	7067.56666667	3.15056666667	;
JU74	7075.99463551	4.75891798942	;
JU75	7097.75926612	4.13870974153	;
JU76	7087.98726852	5.21429479167	;
JU77	7044.42478395	4.47284266975	;
JU78	7076.0625	5.03700034722	;
JU79	7039.78935185	5.37292662037	;
JU80	7102.46131349	3.62580257302	;
JU81	7047.44856019	5.84624814815	;
JU82	7021.91197917	2.46468472222	;
JU83	7049.56614259	4.0265630787	;
JU84	7040.26818616	3.45517361111	;
JU85	7042.25054687	3.07236302083	;
JU86	7085.68055556	3.82766666667	;
JU87	7107.90149646	4.66101378215	;
JU88	7087.93236111	6.98681574074	;
JU89	7090.73725099	4.75250114831	;
JU90	7115.14038628	5.37950755208	;
JU91	7061.45675	2.97982847222	;
JU92	7096.44927973	3.69368228193	;
JU93	7106.88628706	3.57747419903	;
JU94	7108.17472351	2.96046547068	;
JU95	7058.36314815	6.06716481481	;
JU96	7093.18403137	3.90167028303	;
JU97	7084.8593502	4.95098995536	;
JU98	7073.98700475	3.90576677527	;
JU99	7083.10403356	5.94704159722	;
JU100	7076.43500163	2.73698759223	;
JU101	7053.58391694	4.54754481568	;
JU102	7088.34459702	4.61692064494	;
JU103	7087.21561531	4.82079359869	;
JU104	7075.95883402	4.37480186008	;
JU105	7123.71481055	4.25717930411	;
JU106	7030.61801336	4.63591579861	;
JU107	7071.58715664	6.03132473148	;
JU108	7087.34313613	7.7481393403	;
JU109	7113.72291056	3.64654007433	;
JU110	7067.54272377	4.90492509693	;
JU111	7058.03736413	5.28996996428	;
JU112	7143.39179756	3.2657471609	;
JU113	7108.67091159	6.13097598333	;
JU114	7114.9282925	3.79361245628	;
JU115	7088.79444444	4.11906712963	;
JU116	7046.3673804	4.15161149691	;
JU117	7090.92741073	4.33661849861	;
JU118	7113.26590039	5.70151844788	;
JU119	7117.05615114	3.33677259645	;
JU120	7094.7591527	3.20059001764	;
JU121	7046.85969784	2.52404472332	;
JU122	7075.42336348	2.93977782105	;
JU123	7076.18810185	3.76469652778	;
JU124	7116.95139063	3.44174865337	;
JU125	7062.06686886	3.59308181477	;
JU126	7045.2037037	5.35814814815	;
JU127	7090.47201552	3.7112973348	;
JU128	7113.91878126	5.90392170014	;
JU129	7104.34789815	3.61133124074	;
JU130	7081.39438242	3.87029175518	;
JU131	7108.34722222	3.8912037037	;
JU132	7116.56254013	2.98024740628	;
JU133	7095.69350537	3.92749845341	;
JU134	7090.64722483	0.520893689236	;
JU135	7069.85693056	3.03560287037	;
JU136	7045.47787674	2.94334616285	;
JU137	7106.29359319	5.48800617606	;
JU138	7109.52026367	5.58726025391	;
JU139	7110.68842452	3.87249366223	;
JU140	7098.59278077	4.64450691551	;
JU141	7057.77596759	4.77307117122	;
JU142	7049.76292637	5.20853120388	;
JU143	7058.87276224	4.12717512966	;
JU144	7063.45543388	3.53254472617	;
JU145	7062.03881723	4.21318953806	;
JU146	7072.0266245	4.56218578699	;
JU147	7054.53735891	4.76391103156	;
JU148	7072.68999698	5.83510910399	;
JU149	7148.63277146	4.85897473708	;
JU150	7067.30995393	3.2183214413	;
JU151	7057.22989524	3.76497942224	;
JU152	7058.80524362	4.57320528328	;
JU153	7071.78495732	4.37861770994	;
JU154	7107.875	6.3255	;
JU155	7039.22344081	4.52334524863	;
JU156	7081.14220679	2.56628526235	;
JU157	7077.65506431	3.5383668284	;
JU158	7054.99259259	3.97541481481	;
JU159	7069.14928718	5.2310298951	;
JU160	7123.47679591	6.05691340535	;
JU161	7111.62054534	3.546812024	;
JU162	7081.85608139	6.53620290352	;
JU163	7089.95005063	2.93089432326	;
JU164	7067.72492043	2.3280865162	;
JU165	7146.66409465	4.92815123457	;
JU166	7109.22557484	6.57428426589	;
JU167	7092.99882812	4.3848703125	;
JU168	7049.14681024	5.33576612746	;
JU169	7111.0473569	6.50798116605	;
JU170	7159.41998282	1.98787493903	;
JU171	7081.90134259	3.13087790123	;
JU172	7077.71728065	4.1149884808	;
JU173	7076.10584645	3.14730647377	;
JU174	7056.26929012	5.67325617284	;
JU175	7056.46032474	5.19936474868	;
JU176	7087.79588294	4.2374985119	;
JU177	7077.93030069	5.23508701813	;
JU178	7079.87649526	5.29650329751	;
JU179	7065.08341068	3.25724094176	;
JU180	7062.56555686	4.36350418463	;
JU181	7070.55239155	4.80900729077	;
JU182	7074.67545265	6.10310969782	;
JU183	7078.79507441	5.44368577112	;
JU184	7064.83695492	3.46634782297	;
JU185	7069.96698514	5.13600705694	;
JU186	7070.55239155	4.80900729077	;
JU187	7081.96394516	3.34438733612	;
JU188	7115.7608011	6.5512255005	;
JU189	7117.29719722	2.84757965802	;
JU190	7068.5	4.217	;
JU191	7058.05296875	2.05398672197	;
JU192	7043.47337963	3.96399185185	;
JU193	7090.45937446	3.63449072917	;
JU194	7099.11268601	2.65176758405	;
JU195	7075.95883402	4.37480186008	;
JU196	7094.98987654	2.94487718519	;
JU197	7020.32430556	2.57080138889	;
JU198	7069.86662989	4.40169921875	;
JU199	7147.96468107	2.39205955556	;
JU200	7095.40053647	3.86363371445	;
JU201	7100.74038652	3.91162699983	;
JU202	7077.49061716	4.0084001589	;
JU203	7066.36187731	2.18744891204	;
JU204	7062.55541443	4.72522409232	;
JU205	7059.22153164	3.58140853159	;
JU206	7086.43240042	4.49518632502	;
JU207	7061.38713863	72.6276782778	;
JU208	7123.20601852	1.1511	;
JU209	7080.4377776	3.04290965661	;
JU210	7101.88789098	5.07717741662	;
JU211	7125.49524498	5.89149039352	;
JU212	7084.67939554	4.05245276824	;
JU213	7105.75765636	1.83900688014	;
JU214	7061.6418411	5.03637042202	;
JU215	7138.32269162	2.92562620027	;
JU216	7069.6430349	5.29833288647	;
JU217	7098.67084832	4.49983760127	;
JU218	7065.96847704	4.97094656379	;
JU219	7065.09542394	4.19586605903	;
JU220	7077.86675669	5.84254458162	;
JU221	7141.60023341	6.10511814043	;
JU222	7070.43218395	4.07136600309	;
JU223	7098.03125	6.60584375	;
JU224	7070.35398337	2.75773026221	;
JU225	7105.98696694	3.69196508825	;
JU226	7050.31920786	2.28797283392	;
JU227	7074.58572498	5.53577256252	;
JU228	7107.51561581	4.41475059776	;
JU229	7076.28825354	5.50963992233	;
JU230	7093.37176653	5.47777824206	;
JU231	7042.3905753	3.61374500951	;
JU232	7080.32712455	4.96697417391	;
JU233	7075.61831597	4.03754247782	;
JU234	7050.22461806	2.82780736111	;
JU235	7086.22224328	4.67893818034	;
JU236	7091.23738715	5.1451036439	;
JU237	7082.81330564	3.25595621814	;
JU238	7134.22448148	1.8321537037	;
JU239	7088.14992284	3.09812862654	;
JU240	7067.01276042	1.70499092882	;
JU241	7042.83333333	1.11722222222	;
JU242	7092.26260635	5.06847193883	;
JU243	7065.1254981	4.25773997158	;
JU244	7088.13256076	2.42812948534	;
JU245	7127.83137988	4.94700039239	;
JU246	7077.1	5.93386666667	;
JU247	7081.26129012	5.22784592593	;
JU248	7113.59375	3.08566138889	;
JU249	7061.93888831	3.70339554398	;
JU250	7066.98405912	3.38022322816	;
JU251	7067.31951852	2.71943981481	;
JU252	7076.27174056	3.15438144022	;
JU253	7073.65559259	5.63384074074	;
JU254	7071.29460514	4.90505717078	;
JU255	7110.05150304	4.31257678383	;
JU256	7167.68736398	5.70838088883	;
JU257	7090.73725099	4.75250114831	;
JU258	7115.96084352	2.08555717407	;
JU259	7082.64539048	4.03215143884	;
JU260	7061.20999527	4.34655579495	;
JU261	7093.67083333	26.1300479167	;
JU262	7099.81577042	6.03365446574	;
JU263	7062.15883697	5.21681642626	;
JU264	7118.94188582	3.40523213043	;
JU265	7086.880171	3.60026204323	;
JU266	7080.8741254	3.96967003895	;
JU267	7103.6012287	3.45570781962	;
JU268	7126.45448052	6.13983268464	;
JU269	7039.68320305	3.93344721137	;
JU270	7076.07449115	2.67023352503	;
JU271	7069.22154762	5.74322900794	;
JU272	7063.83506944	4.23211979167	;
JU273	7117.54679799	4.57079585594	;
JU274	7137.73585267	5.81207675906	;
JU275	7105.63308709	5.01875693673	;
JU276	7126.45464903	5.07435680125	;
JU277	7058.90295959	5.1625118245	;
JU278	7101.88789098	5.07717741662	;
JU279	7079.99092159	3.22465816808	;
JU280	7111.79620031	4.41235491591	;
JU281	7070.0528705	2.60717045547	;
JU282	7096.94715301	5.4345886061	;
JU283	7027.79894444	4.14470444444	;
JU284	7102.63744097	4.27673016965	;
JU285	7054.05243056	3.75959444444	;
JU286	7065.00892593	5.11385555093	;
JU287	7085.28649713	3.54173822623	;
JU288	7111.15406179	2.54243553612	;
JU289	7108.68306231	2.26871178627	;
JU290	7089.58899853	3.89198790627	;
JU291	7087.60582119	3.13038346207	;
JU292	7140.90441358	7.11675080247	;
JU293	7113.43900463	5.96493634259	;
JU294	7122.81366971	2.76065996615	;
JU295	7070.70052083	3.59368402778	;
JU296	7100.12345679	4.51222222222	;
JU297	7035.52777778	2.25069444444	;
JU298	7110.10625	3.689875	;
JU299	7110.22571976	3.29404242622	;
JU300	7124.04678385	0.905135706019	;
JU301	7113.61015354	2.28304050022	;
JU302	7096.79886083	2.22946225437	;
JU303	7053.13296441	2.73790382909	;
JU304	7081.74200485	2.82182987437	;
JU305	7131.85675638	4.93097378884	;
JU306	7088.57629937	3.12406654188	;
JU307	7074.06672545	3.10191091835	;
JU308	7055.91516074	2.60209337894	;
JU309	7077.79143981	3.03359604167	;
JU310	7093.57686299	3.0698151702	;
JU311	7111.63655244	5.29524076096	;
JU312	7113.13943765	2.88673683541	;
JU313	7126.36952714	3.32060440926	;
JU314	7111.13384624	2.95663651316	;
JU315	7106.32120328	3.56852918356	;
JU316	7111.94038142	3.5457592893	;
JU317	7115.61108	2.87567943119	;
JU318	7083.30492681	4.24331809965	;
JU319	7111.49156074	3.26721608903	;
JU320	7082.93425528	2.94244303035	;
JU321	7084.43072917	1.64461866667	;
JU322	7104.81781921	2.52065140361	;
JU323	7089.15301189	4.18731466678	;
JU324	7041.11146149	2.45827861827	;
JU325	7115.86329962	2.17265558038	;
JU326	7184.45954	6.11790014826	;
JU327	7117.81467673	3.74137508038	;
JU328	7082.66521267	3.58044910012	;
JU329	7084.07012023	2.67087753983	;
JU330	7045.94469049	4.03258902725	;
JU331	7051.90989236	3.371046625	;
JU332	7099.70026042	1.70837274306	;
JU333	7096.79886083	2.22946225437	;
JU334	7113.61015354	2.28304050022	;
JU335	7075.45156114	3.60161269803	;
JU336	7057.49392625	4.24296840674	;
JU337	7103.12788889	2.02036035741	;
JU338	7085.17685336	3.61077086016	;
JU339	7035.00799943	3.45328284931	;
JU340	7135.9140625	2.80996875	;
JU341	7112.49428204	1.91198794996	;
JU342	7112.26778933	3.13224315456	;
JU343	7070.11538973	1.22021277541	;
JU344	7103.85254005	5.02726731019	;
JU345	7098.4821821	5.04879208995	;
JU346	7058.47738305	4.42959370582	;
JU347	7104.40650977	5.59775033142	;
JU348	7071.22866399	4.16099385032	;
JU349	7060.03020833	6.35031851852	;
JU350	7066.67676186	3.07429588637	;
JU351	7060.83664062	2.11427864583	;
JU352	7107.33877852	3.92842937057	;
JU353	7119.68632042	4.08867499628	;
JU354	7073.71913837	75.395156142	;
JU355	7087.59949074	63.5627863889	;
JU356	7080.76601077	18.8464988947	;
JU357	7086.69314815	20.2839561358	;
JU358	7118.14185957	1.50743537037	;
JU359	7063.63784941	3.83638433215	;
JU360	7058.59179688	3.94053578704	;
JU361	7073.99167985	3.34852558025	;
JU362	7072.82366738	4.86650532439	;
JU363	7056.54838637	4.91633868157	;
JU364	7034.27643738	2.16084896852	;
JU365	7089.59985114	19.3931861105	;
JU366	7094.91429138	3.92590638382	;
JU367	7097.89779514	3.81988020833	;
JU368	7089.25249132	4.79035321484	;
JU369	7116.64488988	4.14848059688	;
JU370	7097.21816485	3.59103831927	;
JU371	7094.55055952	4.51160592294	;
JU372	7076.77343194	4.15291290108	;
JU373	7115.56379454	3.33603120949	;
JU374	7057.48032407	4.89871759259	;
JU375	7082.89173665	2.75266445108	;
JU376	7078.97831892	2.28530157053	;
JU377	7029.045	4.90360416667	;
JU378	7106.08509146	3.30383486451	;
JU379	7115.79016822	4.59766262901	;
JU380	7102.80777091	3.91544018555	;
JU381	7099.40042274	4.25147104438	;
JU382	7075.25	4.94675	;
JU383	7072.12883048	4.0595313476	;
JU384	7110.58322531	4.00941358025	;
JU385	7040.40833333	5.52571583333	;
JU386	7055.56251001	2.59764471981	;
JU387	7088.19340278	5.22259212963	;
JU388	7107.12096648	4.41166164958	;
JU389	7075.08704187	5.05825120916	;
JU390	7083.84116945	3.77086630658	;
JU391	7066.85592408	2.85297368506	;
JU392	7094.06223585	4.88822753682	;
JU393	7095.7637116	2.63830554338	;
JU394	7050.02326003	4.31884560957	;
JU395	7081.39438242	3.87029175518	;
JU396	7048.78770991	2.58490979132	;
JU397	7088.34459702	4.61692064494	;
JU398	7095.10933241	4.42588408169	;
JU399	7092.31792438	3.79463111111	;
JU400	7117.81467673	3.74137508038	;
JU401	7074.25780556	1.77282615741	;
JU403	7115.2144219	5.20532599451	;
JU404	7067.75743056	2.23877638889	;
JU405	7120.01377764	2.67612657149	;
JU406	7051.75959234	1.68586814815	;
JU407	7130.6575738	6.1166051363	;
JU408	7100.94966307	5.70818300069	;
JU409	7084.99357277	2.37223058706	;
JU410	7049.94328704	1.78065629823	;
JU411	7062.58562798	4.08932235014	;
JU412	7055.46228798	4.06030672316	;
JU413	7076.87056713	2.93747587963	;
JU414	7067.31629273	3.82434565987	;
JU415	7070.87786766	2.62073794406	;
JU416	7093.08139714	4.26546083779	;
JU417	7063.45298258	2.13756991313	;
JU418	7144.26438766	5.82660068244	;
JU419	7089.07037037	4.64138271605	;
JU420	7061.14182099	6.57889976852	;
JU421	7083.01388889	4.116625	;
JU422	7067.9666034	5.00549227932	;
JU423	7098.4821821	5.04879208995	;
JU424	7128.70694054	4.22150930336	;
JU425	7045.81037326	3.73136463294	;
JU426	7102.31666667	5.00487777778	;
JU427	7059.77025627	4.17202063261	;
JU428	7051.27698594	3.14085836326	;
JU429	7111.51264634	2.7548210653	;
JU430	7115.73958333	3.13744157407	;
JU431	7091.02742476	2.94925137995	;
JU432	7064.94116649	4.89382825586	;
JU433	7064.36539761	5.38224022124	;
JU434	7064.20827128	4.41450253906	;
JU435	7050.71515278	2.61904555556	;
JU436	7061.46261046	2.99377689104	;
JU437	7080.08916569	2.74276650093	;
JU438	7056.96201696	4.5635253412	;
JU439	7098.77411549	4.44725213849	;
JU440	7057.75810185	3.54091666667	;
JU441	7093.76344393	4.51161383745	;
JU442	7122.48003051	4.38091306006	;
JU443	7128.07752019	3.69893042181	;
JU444	7067.38984761	3.92168997557	;
JU445	7078.79507441	5.44368577112	;
JU446	7078.63279141	5.72966462468	;
JU447	7096.21798133	5.17389906636	;
JU448	7116.08378125	3.67155644618	;
JU449	7095.66506001	4.41371993313	;
JU450	7057.25357331	2.86846494112	;
JU451	7053.08959448	3.58552048525	;
JU452	7041.95833333	5.90672291667	;
JU453	7075.8521875	5.65312239607	;
JU454	7049.85925926	2.49450102881	;
JU455	7083.30492681	4.24331809965	;
JU456	7108.53384002	2.65089036008	;
JU457	7100.62799565	2.70280871155	;
JU458	7130.80421296	7.36349018519	;
JU459	7052.6875	3.6790462963	;
JU460	7077.79143981	3.03359604167	;
JU461	7109.75903704	3.77687222222	;
JU462	7076.97971296	3.62627268519	;
JU463	7080.93502779	2.51898301081	;
JU464	7142.44487654	5.28308231481	;
JU465	7050.58977244	3.65548207495	;
JU466	7115.88888889	2.52175925926	;
JU467	7105.18138731	5.34221567681	;
JU468	7050.97860026	3.58900653646	;
JU469	7128.18189333	1.4224014683	;
JU470	7080.35857767	2.69114889146	;
JU471	7083.21643466	2.39454818949	;
JU472	7075.61110284	3.89890637401	;
JU473	7068.74125625	1.54909051384	;
JU474	7072.30167435	5.01559845258	;
JU475	7086.90885417	3.49711805556	;
JU476	7068.8482318	4.88839444782	;
JU477	7083.77392005	12.233227326	;
JU478	7136.01524228	3.85341040123	;
JU479	7077.70531322	4.17074045139	;
JU480	7076.55082881	4.57255343044	;
JU481	7099.64858578	3.8070775198	;
JU482	7072.2205144	3.42869119342	;
JU483	7102.453125	5.19266666667	;
JU484	7106.75042242	5.83823072126	;
JU485	7098.64934902	6.34661879776	;
JU486	7044.19385851	2.79404273727	;
JU487	7107.09616319	3.55955555556	;
JU488	7099.02569319	5.02658952605	;
JU489	7058.47540314	3.69816035238	;
JU490	7090.12409947	1.72525780607	;
JU491	7065.77654321	0.877617283951	;
JU492	7060.45280736	3.02944830761	;
JU493	7096.34283069	4.80037492819	;
JU494	7084.13513624	2.9956199208	;
JU495	7056.51442012	2.2825159527	;
JU496	7070.86145833	3.02377638889	;
JU497	7109.0242142	3.76434625	;
JU498	7071.06512611	3.23837527321	;
JU499	7050.51534762	4.69513114528	;
JU500	7049.33761223	5.25542607596	;
JU501	7077.99438067	5.43352380952	;
JU502	7104.85386645	4.03914148313	;
JU503	7085.71810516	3.96766484375	;
JU504	7072.78676835	4.61941623264	;
JU505	7078.03604478	5.21528098752	;
JU506	7036.79904022	7.23637987765	;
JU507	7078.95654612	6.81072984731	;
JU508	7095.57737269	1.20879201389	;
JU509	7081.45	1.57927777778	;
JU510	7110.42775492	4.96613168724	;
JU511	7084.13949223	3.00273898835	;
JU512	7123.00330504	1.2066895679	;
JU513	7099.88579475	1.85740333333	;
JU514	7086.83716857	2.3563079411	;
JU515	7085.01684028	2.75231238426	;
JU516	7086.02974248	2.71172494792	;
JU517	7085.01684028	2.75231238426	;
JU518	7092.06651085	3.05289727633	;
JU519	7093.5291346	2.91164603315	;
JU520	7124.13321217	2.09045393428	;
JU521	7106.08509146	3.30383486451	;
JU522	7070.77489095	3.24920837449	;
JU523	7108.02905093	5.6670474537	;
JU524	7139.83908074	2.02834827651	;
JU525	7112.26014058	2.27248427521	;
JU526	7184.42262852	3.3515738741	;
JU527	7109.58634588	5.31140598201	;
JU528	7150.83671753	1.1685465401	;
JU529	7150.83671753	1.1685465401	;
JU530	7148.06181387	2.2645443102	;
JU531	7154.5841334	2.1963935415	;
JU532	7160.36490469	5.61105242328	;
JU533	7075.65463477	4.85534632202	;
JU534	7094.62589198	3.73517832568	;
JU535	7058.28033256	2.55911453541	;
JU536	7071.1143987	6.41208017526	;
JU537	7092.85186722	5.24737087326	;
JU538	7117.77759218	2.76291972621	;
JU539	7107.63214675	2.13729157685	;
JU540	7031.1439744	2.7021875164	;
JU541	7119.69911683	4.56783948402	;
JU542	7098.03028841	4.2266449868	;
JU543	7132.49379898	6.10600198835	;
JU544	7086.52032094	2.45765997541	;
JU545	7093.70992477	1.95697366898	;
JU546	7052.64373405	2.70663992732	;
JU547	7097.18174535	4.36142727365	;
JU548	7093.11731752	5.90065198059	;
JU549	7095.66905141	2.02931530912	;
JU550	7062.56238426	3.05987586806	;
JU551	7044.21770833	4.34170208333	;
JU552	7059.84184317	6.55830131019	;
JU553	7113.84333889	5.91763693968	;
JU554	7080.42052902	3.71679571407	;
JU555	7061.33706724	2.35744637614	;
JU556	7139.25359526	4.88382916017	;
JU557	7056.35651185	5.50441285549	;
JU558	7089.88412574	4.50561188657	;
JU559	7090.21217223	3.40544040557	;
JU560	7062.24131944	4.40274131944	;
JU561	7103.4945	4.4015375	;
JU562	7089.02087165	4.69850111616	;
JU563	7109.34957133	2.62147290809	;
JU564	7080.4129908	4.4984202139	;
JU565	7127.95248887	3.59461259739	;
JU566	7019.15670335	3.65175270201	;
JU567	7105.91910042	4.71539157334	;
JU568	7059.69385851	5.65224604311	;
JU569	7087.09937629	4.60083114712	;
JU570	7106.17476219	1.51255850096	;
JU571	7106.11393533	6.05511944738	;
JU572	7082.68234745	2.57923030736	;
JU573	7083.64606176	2.4130727423	;
JU574	7104.75359198	3.74299859568	;
JU575	7121.47974969	2.97277615972	;
JU576	7060.0194553	3.98751587819	;
JU577	7094.03168692	4.40214011767	;
JU578	7125.84064156	5.13661681555	;
JU579	7090.59588205	5.54697202579	;
JU580	7115.0504078	2.1467350725	;
JU581	7046.55457471	4.26839636088	;
JU582	7107.92049872	4.42440562504	;
JU583	7117.81417342	3.76906270329	;
JU584	7097.5818591	2.69863851491	;
JU585	7101.90205926	1.80082348304	;
JU586	7050.47777778	7.27572962963	;
JU587	7019.71875	5.344	;
JU588	7061.76986772	3.15434667423	;
JU589	7068.41821165	3.47670155374	;
JU590	7083.66646605	3.54635924897	;
JU591	7113.71381945	4.20079413039	;
JU592	7076.12371189	3.44820023936	;
JU593	7081.0844924	3.41025681945	;
JU594	7113.36851587	3.25179575397	;
JU595	7103.42379965	3.70541528511	;
JU596	7086.76425841	4.88311419621	;
JU597	7085.13509115	1.35103151042	;
JU598	7110.77176378	5.82697917971	;
JU599	7103.90260919	4.56435765793	;
JU600	7111.29781481	5.54195592593	;
JU601	7079.38549085	2.16628591343	;
JU602	7082.03926324	2.04940872016	;
JU603	7036.25701775	74.0671374074	;
JU604	7057.88445922	4.43378864499	;
JU605	7088.153125	5.87289041667	;
JU606	7084.48350137	3.81673583321	;
JU607	7081.2209588	4.13475611256	;
JU608	7103.92741319	3.97558668981	;
JU609	7104.23982188	2.78081906294	;
JU610	7057.34457935	3.21386608332	;
JU611	7113.36851587	3.25179575397	;
JU612	7103.66661212	4.02793556134	;
JU613	7109.92109375	4.564659375	;
JU614	7104.80534268	2.57679262657	;
JU615	7131.08151154	4.65504086478	;
JU616	7041.98793519	6.82633796296	;
JU617	7110.78159915	6.4704233179	;
JU618	7074.61979872	3.12313812572	;
JU619	7059.14665211	2.32787904744	;
JU620	7051.00804769	2.03633999026	;
JU621	7075.40178828	5.21208203643	;
JU622	7081.59284397	2.87790242236	;
JU623	7105.02152036	2.46372892714	;
JU624	7101.45996094	4.47476484375	;
JU625	7071.89418081	4.4319191644	;
JU626	7101.64502575	4.07569360584	;
JU627	7052.00597827	2.95141398479	;
JU628	7057.13364182	2.5584034995	;
JU629	7063.0984035	6.32646341917	;
JU630	7095.12543294	2.58756044885	;
JU631	7059.28452538	4.4716593674	;
JU632	7058.30189525	3.93289015239	;
JU633	7104.93035889	4.41662012261	;
JU634	7080.203375	0.521675	;
JU635	7169.52205761	1.14358271605	;
JU636	7086.52032094	2.45765997541	;
JU637	7059.69385851	5.65224604311	;
JU638	7074.74822049	4.69254699653	;
JU639	7136.35185185	7.69866666667	;
JU640	7070.31969696	1.98037194402	;
JU641	7077.09103082	3.88252850588	;
JU642	7066.93403284	4.58167709013	;
JU643	7081.95784013	3.5932789105	;
JU644	7065.76311047	3.43967951172	;
JU645	7069.32689172	5.13015681649	;
JU646	7103.95787599	4.21238866677	;
JU647	7089.4154552	5.94367174444	;
JU648	7097.05054508	3.40015205218	;
JU649	7092.65582362	3.77609762962	;
JU650	7117.34729071	5.11609881087	;
JU651	7087.25888889	6.57571296296	;
JU652	7103.23918086	5.0003448155	;
JU653	7101.27219685	3.90453529202	;
JU654	7116.34660976	5.78039632282	;
JU655	7108.73125941	3.31917036325	;
JU656	7120.45778787	6.05202508088	;
JU657	7084.44271026	3.50629271862	;
JU658	7079.08722307	6.2995717103	;
JU659	7078.63279141	5.72966462468	;
JU660	7095.85069444	2.59229166667	;
JU661	7078.97831892	2.28530157053	;
JU662	7061.48723562	4.19304551739	;
JU663	7086.76640278	1.19302280093	;
JU664	7106.79817001	5.24707030178	;
JU665	7090.23300106	4.74666558768	;
JU666	7093.14645919	2.75998504801	;
JU667	7066.8452046	5.96757530757	;
JU668	7058.80452381	3.87610425737	;
JU669	7071.61679508	4.42413036633	;
JU670	7084.43898968	4.42731469232	;
JU671	7118.14518519	4.42598726852	;
JU672	7051.11814993	3.54061902929	;
JU673	7108.45411658	6.26904721457	;
JU674	7116.0952507	3.39158920369	;
JU675	7110.70364602	5.79297467628	;
JU676	7123.88263623	4.63853501929	;
JU677	7139.96453704	6.74901305556	;
JU678	7087.98390157	3.40669126669	;
JU679	7089.29113725	3.95995249394	;
JU680	7095.11244583	3.96688088944	;
JU681	7103.10462377	5.31346442258	;
JU682	7106.4632715	2.3813724144	;
JU683	7080.96942445	2.7989967826	;
JU684	7081.2415456	3.49230585442	;
JU685	7092.32783261	3.39355604769	;
JU686	7153.08821197	4.92442096825	;
JU687	7103.84694444	12.8832561728	;
JU688	7094.55041482	4.04170873462	;
JU689	7093.60268195	3.95586477176	;
JU690	7095.76639183	5.1759404441	;
JU691	7066.48776466	5.05967391512	;
JU692	7127.43432606	5.95091796186	;
JU693	7111.33185836	5.69966077307	;
JU694	7081.44854	6.17127631492	;
JU695	7071.39348308	2.92021818142	;
JU696	7070.48278228	4.44267682485	;
JU697	7074.25780556	1.77282615741	;
JU698	7052.86027629	2.39759258843	;
JU699	7056.86574074	3.10023064815	;
JU700	7112.40512501	5.42887589861	;
JU701	7082.56081153	2.29290805947	;
JU702	7136.80544677	2.68515552042	;
JU703	7099.19243983	5.43614360286	;
JU704	7059.70776808	4.32395234788	;
JU705	7094.77043981	2.99509953704	;
JU706	7081.61023663	2.13693427984	;
JU707	7056.34152562	6.21973541667	;
JU708	7121.30107669	4.11097108839	;
JU709	7104.68609182	5.21581789255	;
JU710	7088.34459702	4.61692064494	;
JU711	7044.25695336	2.87612427796	;
JU712	7096.54525753	3.45019692671	;
JU713	7084.2326166	4.53451696442	;
JU714	7143.82547178	6.90153263448	;
JU715	7135.39270833	3.81611498457	;
JU716	7107.15557538	5.53494651813	;
JU717	7067.94705357	1.6314485119	;
JU718	7062.30738556	1.62851465856	;
JU719	7069.25288848	4.06204877572	;
JU720	7124.10346354	4.12700283565	;
JU721	7057.05743864	4.66680844356	;
JU722	7069.23821893	5.10309414095	;
JU723	7046.38327409	2.65175314567	;
JU724	7046.70924349	3.39164012851	;
JU725	7073.26542055	5.69831243591	;
JU726	7086.59015084	4.01881773277	;
JU727	7035.96680989	3.09539375253	;
JU728	7071.18156842	4.71411874788	;
JU729	7140.46527778	7.97983333333	;
JU730	7062.18782363	2.22594286739	;
JU731	7076.35193202	4.02994756459	;
JU732	7130.62771042	5.55211367413	;
JU733	7043.68875041	3.15977315549	;
JU734	7074.86040126	3.61567959026	;
JU735	7059.70229995	5.11830886054	;
JU736	7073.94981661	5.13134617233	;
JU737	7051.39886363	1.84299231439	;
JU738	7085.65008929	2.76816535714	;
JU739	7093.44484911	3.91995571295	;
JU740	7107.74278138	5.2671760511	;
JU741	7108.40791789	4.42594586514	;
JU742	7121.07519065	5.09578009002	;
JU743	7090.71949133	4.46094526439	;
JU744	7134.23813606	7.00399526521	;
JU745	7083.52986772	2.75277016629	;
JU746	7093.37998125	17.5201328064	;
JU747	7066.78209877	11.5901462384	;
JU748	7144.70645833	2.36775972222	;
JU749	7072.90452734	4.97411349367	;
JU750	7077.13305761	2.88748723508	;
JU751	7072.31545428	3.13302505787	;
JU752	7066.34422242	2.12503765818	;
JU753	7068.38156917	16.1160269822	;
JU754	7082.89250824	3.72879268893	;
JU755	7066.72684376	14.1909600207	;
JU756	7073.91931006	3.76306422174	;
JU757	7064.3390051	3.42198266162	;
JU758	7085.86537709	4.75361679894	;
JU759	7067.83463789	4.59561563152	;
JU760	7050.90177401	3.34852001286	;
JU761	7104.28951852	3.91893611111	;
JU762	7137.99647714	3.82582048032	;
JU763	7109.52314815	4.0309872428	;
JU764	7133.67361111	4.87328472222	;
JU765	7113.09518383	4.42186207067	;
JU766	7067.13635417	4.8490649537	;
JU767	7108.83816744	2.80656076389	;
JU768	7103.62940045	4.12952473702	;
JU769	7081.98942792	4.77249110355	;
JU770	7126.19612269	4.04614899691	;
JU771	7095.98062025	4.03987858989	;
JU772	7044.42572674	3.57893137277	;
JU773	7062.98128356	2.98918517141	;
JU774	7078.125	6.14691666667	;
JU775	7094.35085319	4.87483504533	;
JU776	7119.96407902	5.67441115437	;
JU777	7069.21378968	2.96585111961	;
JU778	7074.95951294	5.7714835486	;
JU779	7057.42430556	7.46824259259	;
JU780	7100.05821391	4.25755695565	;
JU781	7090.13727985	4.75316171526	;
JU782	7080.05040978	2.85415462525	;
JU783	7120.45778787	6.05202508088	;
JU784	7083.90872511	5.18358401938	;
JU785	7089.95356077	3.13881659461	;
JU786	7058.27996032	5.30485047221	;
JU787	7046.38327409	2.65175314567	;
JU788	7088.85680075	3.86492499657	;
JU789	7097.75356709	3.78709510753	;
JU790	7106.13715278	3.64151898148	;
JU791	7087.92195351	2.84777327091	;
JU792	7014.91215278	1.81252569444	;
JU793	7050.68847868	57.6683262744	;
JU794	7139.9900412	5.73311398228	;
JU795	7142.093311	5.34651027396	;
JU796	7077.71966998	3.55216818307	;
JU797	7096.10915817	4.21113578723	;
JU798	7083.92631089	3.20298540771	;
JU799	7066.87077881	3.27077918724	;
JU800	7077.5731085	38.142050239	;
JU801	7066.0625	4.62225	;
JU802	7076.36406861	3.72671955159	;
JU803	7081.13111711	3.72605801729	;
JU804	7097.28514606	3.38379958719	;
JU805	7099.57134913	4.0482766985	;
JU806	7088.11114465	3.79726152263	;
JU807	7053.94689307	4.86934928241	;
JU808	7062.55231178	4.41049089577	;
JU809	7073.58421071	4.14750791763	;
JU810	7054.89235974	3.91450669014	;
JU811	7084.8558	2.94743377778	;
JU812	7049.29324911	1.05382323044	;
JU813	7102.39725622	2.40017451678	;
JU814	7080.42463981	5.18822562189	;
JU815	7053.91631014	4.57318931177	;
JU816	7119.61425265	2.10898181217	;
JU817	7102.09133185	3.39552151538	;
JU818	7154.65972314	1.52667076189	;
JU819	7093.88526396	3.9529920983	;
JU820	7096.44797186	3.89280552772	;
JU821	7095.38050084	3.07970835816	;
JU822	7091.99560438	3.62505144694	;
JU823	7077.59747024	4.25926934524	;
JU824	7091.0908767	3.55366060827	;
JU825	7084.91577381	3.81117589286	;
JU826	7089.73563116	3.73345620097	;
JU827	7133.04025298	4.15218214286	;
JU828	7106.49545293	3.42161945389	;
JU829	7076.20036718	3.40291329625	;
JU830	7083.11656467	6.39141247975	;
JU831	7077.3755841	3.46837197634	;
JU832	7077.63496914	5.84483322531	;
JU833	7102.08451389	5.53771972222	;
JU834	7176.08463542	3.23759114583	;
JU835	7121.90147569	3.92915972222	;
JU836	7102.40013295	2.50086499805	;
JU837	7093.09240885	1.64048098958	;
JU838	7061.87956533	5.71984259259	;
JU839	7122.71508295	3.04483213735	;
JU840	7088.11192512	91.7527819434	;
JU841	7121.12537688	1.64148590133	;
JU842	7057.0389755	3.282856484	;
JU843	7082.73752376	6.81265291296	;
JU844	7112.72234857	5.3033292393	;
JU845	7104.20486849	4.99316396991	;