[TITLE]
Generated synthetic network;

[JUNCTIONS]
;ID	Elev	Demand	Pattern
JU2	7069.50132044	3.57704844639	;
JU3	7115.16177843	2.3827711357	;
JU4	7116.33333333	7.02833333333	;
JU5	7107.20623553	5.1320630787	;
JU6	7061.86120997	2.97440970293	;
JU7	7073.37873071	2.97745492284	;
JU8	7108.06500772	3.77017862654	;
JU9	7102.14400529	4.045073845	;
JU10	7084.5815132	4.01696796639	;
JU11	7073.66788375	3.12991966146	;
JU12	7085.88888889	2.93335554453	;
JU13	7114.9375	3.54294444444	;
JU14	7118.3125	7.05525	;
JU15	7127.67728078	2.57005947699	;
JU16	7083.5693138	2.38999816341	;
JU17	7087.52068709	3.91171101687	;
JU18	7048.26396447	4.76278629951	;
JU19	7095.50667733	5.89906082384	;
JU20	7088.81101503	3.51457505086	;
JU21	7102.01614884	2.91057940972	;
JU22	7099.47060185	4.0444068287	;
JU23	7095.65234375	2.70228125	;
JU24	7094.84030039	3.34178918368	;
JU25	7059.84710378	3.65396437413	;
JU26	7077.54540546	4.18811188168	;
JU27	7069.29836768	3.47714761806	;
JU28	7091.39380377	3.36389266336	;
JU29	7127.30465715	4.19710848715	;
JU30	7106.4203125	5.20138125	;
JU31	7102.71833247	4.67348149653	;
JU32	7063.2016929	3.96145073169	;
JU33	7044.51505816	3.23507639097	;
JU34	7074.7103588	5.63944904514	;
JU35	7080.31724794	6.08018341258	;
JU36	7074.94858314	4.06881231809	;
JU37	7069.16990741	6.56092934028	;
JU38	7105.96553241	6.24013924769	;
JU39	7089.08618634	6.63478690828	;
JU40	7065.74738555	4.19997967078	;
JU42	7043.67496971	3.81118370115	;
JU43	7019.79231286	4.24687274805	;
JU44	7110.11682313	4.9754277049	;
JU45	7124.60292289	2.42431102712	;
JU46	7074.23187843	5.41571016362	;
JU47	7076.23064531	6.08770014555	;
JU48	7076.26811961	5.74020741331	;
JU49	7093.11708333	4.95871333333	;
JU50	7116.9563542	5.09488294639	;
JU51	7072.24017364	3.3887768899	;
JU52	7061.16794809	4.32551272249	;
JU53	7076.59775482	6.07597241071	;
JU54	7070.03006143	5.14794749831	;
JU55	7138.29204022	1.74976335384	;
JU56	7091.48869174	6.31260326032	;
JU57	7037.125	2.538125	;
JU58	7143.88253086	4.54075740741	;
JU59	7128.41666667	5.61809722222	;
JU60	7121.4700397	4.66708382065	;
JU61	7090.71875	3.09876388889	;
JU62	7094.19554203	3.55452756981	;
JU63	7062.62855815	2.50882624256	;
JU64	7085.30229776	5.1796411355	;
JU65	7106.09467593	2.98292361111	;
JU66	7073.92558457	4.24905972137	;
JU67	7059.96091272	1.33260886209	;
JU68	7104.29467219	3.95917411542	;
JU69	7078.9195887	3.15811671001	;
JU70	7109.81282502	4.05318710545	;
JU71	7074.89600889	4.90133840045	;
JU72	7073.88873684	3.361474868	;
JU73	7092.63008777	3.4619533179	;
JU74	7127.53213596	3.0169673047	;
JU75	7140.49576698	1.85487838735	;
JU76	7102.70522838	3.87129017464	;
JU77	7083.79011409	4.99344720805	;
JU78	7112.73959722	5.02308036111	;
JU79	7054.06941073	5.38671574554	;
JU80	7088.68307472	4.81112624739	;
JU81	7095.1404321	4.99586959877	;
JU82	7052.48184053	3.42492322531	;
JU83	7080.57527652	3.55053257169	;
JU84	7083.7962963	3.76740740741	;
JU85	7119.50526803	4.83048072979	;
JU86	7115.98105037	2.82952488668	;
JU87	7047.95762603	3.26988876029	;
JU88	7102.88928074	2.78948369602	;
JU89	7100.67277558	4.56002131827	;
JU90	7066.36956845	2.46739773198	;
JU91	7053.03020924	3.93193301587	;
JU92	7064.24760211	2.75819538858	;
JU93	7075.66068139	6.44514403313	;
JU94	7053.77231384	4.71925960931	;
JU95	7069.11564297	4.10147843895	;
JU96	7063.04297143	4.20167016667	;
JU97	7088.72610908	4.25167634959	;
JU98	7091.74293033	4.54272072264	;
JU99	7078.60387031	5.16367673281	;
JU100	7071.68542794	3.37870326389	;
JU101	7046.94791667	2.80738425926	;
JU102	7048.49665344	2.38729910053	;
JU103	7036.47496693	6.24968452381	;
JU104	7113.47727526	3.08888576124	;
JU105	7025.56676955	3.33936625514	;
JU106	7129.0153035	2.37489711934	;
JU107	7072.50191469	4.03568814158	;
JU108	7054.40625	4.67633009259	;
JU109	7127.30465715	4.19710848715	;
JU110	7074.17078056	4.50667265556	;
JU111	7086.78374003	4.10150434902	;
JU112	7097.55247076	4.75374175286	;
JU113	7056.84088469	3.78577867155	;
JU114	7081.56365741	3.95901554233	;
JU115	7159.21527778	6.51906944444	;
JU116	7129.14531898	5.64846230059	;
JU117	7063.94746603	3.49465213554	;
JU118	7072.9718188	3.75075077399	;
JU119	7131.58143017	3.68478508288	;
JU120	7068.10588073	2.70517934636	;
JU121	7072.4202058	5.48739704138	;
JU122	7116.46614945	5.01112113956	;
JU123	7089.33983049	3.44442503528	;
JU124	7087.56419753	2.26498765432	;
JU125	7141.66502832	4.84267213063	;
JU126	7067.09259259	3.93103703704	;
JU127	7084.39284363	2.27926573702	;
JU128	7133.6526494	4.65854185582	;
JU129	7099.84192638	5.95758020138	;
JU130	7020.94058642	0.895329475309	;
JU131	7088.90393519	5.39846296296	;
JU132	7104.31173843	5.6068761677	;
JU133	7139.82777778	5.87278888889	;
JU134	7091.56607059	3.39493068952	;
JU135	7107.50097004	4.08051153344	;
JU136	7139.12820779	3.81691371012	;
JU137	7075.66068139	6.44514403313	;
JU138	7072.40708022	2.27400061728	;
JU139	7125.52417969	4.75205666667	;
JU140	7076.98568463	5.33596969138	;
JU141	7080.4273296	5.85793913275	;
JU142	7053.40522451	3.85929955521	;
JU143	7045.85464502	4.18242310177	;
JU144	7072.52281629	3.97386193755	;
JU145	7070.45090817	3.8935653264	;
JU146	7080.18283285	4.44953107178	;
JU147	7074.49341821	5.84010797362	;
JU148	7098.28872291	5.03517870049	;
JU149	7053.6223194	3.58182628187	;
JU150	7050.59170368	3.41229826174	;
JU151	7088.00680088	3.01800649906	;
JU152	7115.69715207	4.31778321049	;
JU153	7072.77905093	6.95522125772	;
JU154	7073.83346665	4.75431097185	;
JU155	7067.13054689	2.44182741245	;
JU156	7122.32330556	3.590503475	;
JU157	7119.40912548	5.73769722267	;
JU158	7028.73652655	7.55998784921	;
JU159	7080.05732048	4.07996175359	;
JU160	7093.60400113	3.56800488946	;
JU161	7052.01614506	3.82457338272	;
JU162	7071.8087868	2.54024980444	;
JU163	7088.40740741	1.79333333333	;
JU164	7040.97942222	2.8300152572	;
JU165	7089.07176811	4.09021401574	;
JU166	7099.56236497	4.1420788966	;
JU167	7057.4669541	3.00108267803	;
JU168	7060.48703704	3.84441481481	;
JU169	7101.80829504	3.33675219497	;
JU170	7099.09122685	3.50446880324	;
JU171	7061.29081641	2.18017487693	;
JU172	7109.10185185	2.44519212963	;
JU173	7079.79685663	4.03716398442	;
JU174	7134.88030599	2.48376128472	;
JU175	7069.81471354	6.37697070313	;
JU176	7105.09181942	3.66106201177	;
JU177	7127.31407703	2.48431101435	;
JU178	7084.29363584	5.99292315675	;
JU179	7063.71214529	2.57060657981	;
JU180	7114.02952178	4.5172927444	;
JU181	7077.34427847	5.32851281599	;
JU182	7094.1869399	5.13736530704	;
JU183	7058.78225815	3.23142719401	;
JU184	7040.36675103	1.81153618827	;
JU185	7092.27848765	3.9393945679	;
JU186	7064.11212371	2.34959943184	;
JU187	7076.95367187	5.34328495049	;
JU188	7150.6982325	3.50918505756	;
JU189	7060.28759472	4.98862458072	;
JU190	7060.41339506	5.65872340535	;
JU191	7072.2547575	3.45598493533	;
JU192	7052.96583995	5.15458796296	;
JU193	7054.54923834	4.72421326302	;
JU194	7057.03292392	4.97433485509	;
JU195	7115.93947977	2.52170817101	;
JU196	7051.22095646	3.56838911333	;
JU197	7096.43838134	4.68221617963	;
JU198	7109.66950898	3.28949377631	;
JU199	7075.57669003	5.90880470893	;
JU200	7028.31010665	7.42930046429	;
JU201	7056.41225	6.79377433333	;
JU202	7077.81481481	2.86775925926	;
JU203	7080.39475446	1.76107470238	;
JU204	7049.42253086	1.02841481481	;
JU205	7067.44772047	4.1602637136	;
JU206	7073.71608222	4.01187082296	;
JU207	7074.17078056	4.50667265556	;
JU208	7089.03976389	1.27921511111	;
JU209	7075.32341458	3.77552295016	;
JU210	7063.84755787	3.55116115741	;
JU211	7102.40742407	2.88769182222	;
JU212	7095.173759	4.72507483025	;
JU213	7097.76342552	5.1497223968	;
JU214	7064.6719994	3.00270728616	;
JU215	7068.39529995	3.64739173387	;
JU216	7076.17619634	4.89095528585	;
JU217	7071.11739747	4.58344304746	;
JU218	7072.81063529	4.73015326646	;
JU219	7052.32068135	4.01862838863	;
JU220	7079.99334274	2.21076134642	;
JU221	7030.707918	3.12422801402	;
JU222	7053.47839506	4.37011265432	;
JU223	7104.72811287	3.27668906526	;
JU224	7085.90296984	6.19639333645	;
JU225	7121.68416892	5.87524523059	;
JU226	7080.92013889	8.18888888889	;
JU227	7064.20435305	4.60796892299	;
JU228	7067.6057083	6.70390041257	;
JU229	7113.926375	3.08686566667	;
JU230	7068.50304022	4.43120640915	;
JU231	7093.02051681	5.07447664527	;
JU232	7107.4771204	4.33071531801	;
JU233	7064.21710317	3.54643143739	;
JU234	7065.61419609	2.22472282335	;
JU235	7095.66518568	4.13121948362	;
JU236	7131.2860114	2.77694743769	;
JU237	7107.7045	3.460424	;
JU238	7049.86087778	4.02468094889	;
JU239	7094.97201343	4.68204647593	;
JU240	7122.96620095	5.18981087412	;
JU241	7058.04272569	4.37637044753	;
JU242	7055.61470486	4.76650397222	;
JU243	7109.17037037	4.26485185185	;
JU244	7091.9397592	4.55908055177	;
JU245	7109.24976852	2.78716296296	;
JU246	7064.7536169	1.32411481481	;
JU247	7177.82027521	2.74317539095	;
JU248	7055.92010524	4.32369446674	;
JU249	7065.62222016	4.5055069255	;
JU250	7072.31512989	3.67251815458	;
JU251	7060.38248045	3.12344819465	;
JU252	7058.77227713	4.14417720098	;
JU253	7076.97916667	4.52779166667	;
JU254	7075.60792824	4.79727928241	;
JU255	7131.45078189	3.22013683128	;
JU256	7107.14059028	4.84532208333	;
JU257	7109.66974468	4.29028138229	;
JU258	7088.57696759	1.99280617284	;
JU259	7090.7341433	5.93794612579	;
JU260	7100.83642503	1.59050399884	;
JU261	7088.31492245	4.07506919313	;
JU262	7089.78470077	3.85076711822	;
JU263	7097.63756481	6.33526562346	;
JU264	7080.64852203	5.30226051344	;
JU265	7123.90229861	3.67558236111	;
JU266	7160.06646065	1.4045069537	;
JU267	7054.44185681	5.63105264708	;
JU268	7069.94516166	4.97906923296	;
JU269	7043.88451499	6.80641272928	;
JU270	7100.32751593	2.91069853024	;
JU271	7088.34578794	3.22509494929	;
JU272	7065.91718687	3.68251777237	;
JU273	7085.15913277	3.76977019652	;
JU274	7052.01442593	5.56471103704	;
JU275	7071.30251157	4.21980041667	;
JU276	7113.07153646	4.55746083333	;
JU277	7103.8422625	3.31768337222	;
JU278	7110.54627358	2.73130797801	;
JU279	7082.34215535	4.46879531893	;
JU280	7069.64170966	49.8793622459	;
JU281	7096.98310316	4.57329037164	;
JU282	7099.95695228	3.30904688285	;
JU283	7051.66484375	5.45105023148	;
JU284	7066.51982847	5.93069981685	;
JU285	7071.79714979	3.38684436091	;
JU286	7095.82800409	4.62263659364	;
JU287	7050.84179012	4.98374154321	;
JU288	7059.97519301	3.99219999475	;
JU289	7089.11286537	5.65396227961	;
JU290	7088.2025463	2.06762268519	;
JU291	7079.46122685	3.57374020062	;
JU292	7116.54551817	2.50090441925	;
JU293	7080.92973397	5.19817126374	;
JU294	7077.55012574	3.66032989683	;
JU295	7104.22142046	2.37909961384	;
JU296	7080.66612326	5.53315618981	;
JU297	7121.22265625	7.37975	;
JU298	7072.25165833	5.12557036863	;
JU299	7116.24238336	3.65688162109	;
JU300	7110.25520833	3.72944444444	;
JU301	7038.83530527	5.34500429398	;
JU302	7082.59578587	4.69395404581	;
JU303	7090.19885278	3.61493438889	;
JU304	7120.96356824	5.68772751913	;
JU305	7087.68845312	3.03753573839	;
JU306	7090.27437713	3.34191836682	;
JU307	7125.01561803	4.12559809927	;
JU308	7124.91846131	4.20787618615	;
JU309	7080.62319351	4.61221922566	;
JU310	7106.49946933	4.96192696065	;
JU311	7155.54179205	1.22176576003	;
JU312	7137.12998417	1.55036170235	;
JU313	7136.05568335	2.19597667663	;
JU314	7110.26357317	3.64681227355	;
JU315	7130.2019496	1.99515333495	;
JU316	7106.05658858	5.93260370793	;
JU317	7122.17022336	1.46060408918	;
JU318	7102.45246914	4.69017530864	;
JU319	7080.95330826	2.58465675154	;
JU320	7103.23599481	3.6574392663	;
JU321	7116.9563542	5.09488294639	;
JU322	7111.36064089	4.32531395392	;
JU323	7096.98042227	3.28097204824	;
JU324	7129.03564072	3.90260207853	;
JU325	7143.58227105	3.06709224152	;
JU326	7138.18180858	3.90704365926	;
JU327	7098.44315123	4.36169141204	;
JU328	7120.26904156	4.34830545062	;
JU329	7130.77884451	4.14754587646	;
JU330	7109.69510957	4.53461823688	;
JU331	7112.55388814	4.47261785547	;
JU332	7084.21282986	5.55689565972	;
JU333	7061.98749685	4.13438148148	;
JU334	7069.32672043	3.98511282265	;
JU335	7120.23113078	3.7496878739	;
JU336	7094.23816262	4.54245789429	;
JU337	7037.44246039	4.36623807248	;
JU338	7019.79231286	4.24687274805	;
JU339	7014.32374426	4.25946287598	;
JU340	7044.42754611	3.89869548016	;
JU341	7031.15975652	3.34031727023	;
JU342	7136.05568335	2.19597667663	;
JU343	7137.12998417	1.55036170235	;
JU344	7122.17022336	1.46060408918	;
JU345	7064.00090432	1.43392858488	;
JU346	7105.156641	3.87417072748	;
JU347	7104.3204698	5.28747690127	;
JU348	7071.0785565	3.87075798587	;
JU349	7092.73888889	2.3851	;
JU350	7063.90770679	3.45682380247	;
JU351	7083.90437918	2.48071605425	;
JU352	7076.62326215	3.37339029306	;
JU353	7050.32368035	3.38212743825	;
JU354	7073.89912864	2.25274508598	;
JU355	7036.20668319	2.33209051183	;
JU356	7051.45398437	5.29031853781	;
JU357	7046.76247736	2.84625757029	;
JU358	7103.46558428	4.37417154635	;
JU359	7054.05256731	3.695942667	;
JU360	7090.10064525	5.37304143301	;
JU361	7061.65266084	1.45010896176	;
JU362	7058.18092378	3.32578489926	;
JU363	7099.43037594	6.05018095522	;
JU364	7103.09461806	3.58103125	;
JU365	7102.8609375	3.38060833333	;
JU366	7045.37433862	5.15815343915	;
JU367	7063.08333333	3.47718287037	;
JU368	7039.30555556	3.86211805556	;
JU369	7068.5721471	4.41212027067	;
JU370	7105.41935655	4.49894564729	;
JU371	7124.83996914	2.08898055556	;
JU372	7041.83333333	3.85441666667	;
JU373	7125.27407407	2.21941111111	;
JU374	7120.51684929	5.47470078662	;
JU375	7079.05704365	4.61864930556	;
JU376	7075.0398598	6.81879472075	;
JU377	7101.7037037	4.18088888889	;
JU378	7090.7341433	5.93794612579	;
JU379	7112.5822157	2.49642622389	;
JU380	7107.88134549	5.36770961806	;
JU381	7064.02468359	4.84510288513	;
JU382	7064.37695312	3.11862447917	;
JU383	7088.95423275	5.01067540081	;
JU384	7028.31010665	7.42930046429	;
JU385	7107.38026496	3.28123525738	;
JU386	7130.72299691	4.50168429012	;
JU387	7137.16425075	5.74752216799	;
JU388	7054.1156383	5.25853222698	;
JU389	7064.30035908	4.54883916964	;
JU390	7098.52581838	5.6314443478	;
JU391	7056.26644274	5.12553159846	;
JU392	7136.8287037	7.12975925926	;
JU393	7052.96751525	5.86931283318	;
JU394	7111.3532806	5.07627290429	;
JU395	7039.65949556	5.1189400463	;
JU396	7050.47753725	3.85234639727	;
JU397	7100.58246528	0.294625	;
JU398	7084.83987029	4.50776419648	;
JU399	7060.02148438	3.20972899306	;
JU400	7032.89611111	4.28662444444	;
JU401	7071.35931014	4.02903693651	;
JU402	7132.0050791	3.05772013557	;
JU403	7108.67078189	2.30414609053	;
JU404	7118.62435878	3.76730671692	;
JU405	7091.56203655	3.74876570322	;
JU406	7072.13551731	3.17760684058	;
JU407	7023.75694444	1.27084027778	;
JU408	7174.45016016	1.41467835692	;
JU409	7117.24207732	5.18264896843	;
JU410	7115.72122468	4.0290828088	;
JU411	7106.89795718	3.22687385995	;
JU412	7102.56289328	4.02970153402	;
JU413	7096.28884774	3.63970781893	;
JU414	7064.35185185	4.38674534465	;
JU415	7030.69126979	4.22802276387	;
JU416	7075.48402778	1.87248083333	;
JU417	7075.48402778	1.87248083333	;
JU418	7052.32506169	3.21242166924	;
JU419	7035.28999646	3.81635370359	;
JU420	7072.14714474	4.49101996968	;
JU421	7055.74094997	3.75796246823	;
JU422	7105.08050009	3.24002147823	;
JU423	7073.87745809	2.94853140677	;
JU424	7073.87745809	2.94853140677	;
JU425	7038.70833333	3.78217708333	;
JU426	7109.60790137	1.28073253142	;
JU427	7051.66484375	5.45105023148	;
JU428	7132.70823164	3.45605190988	;
JU429	7124.98974868	2.73472434414	;
JU430	7090.43090365	4.86615957228	;
JU431	7050.69508138	5.12864055773	;
JU432	7068.71241779	3.2320536147	;
JU433	7066.81961533	3.63878601722	;
JU434	7080.01112397	3.71533359053	;
JU435	7073.8093237	2.37533050183	;
JU436	7041.47370868	3.46326076101	;
JU437	7073.74035701	3.97518551904	;
JU438	7100.18127894	1.81819801312	;
JU439	7049.54305556	3.91890972222	;
JU440	7157.35857799	2.26535304065	;
JU441	7059.28537843	3.07303468424	;
JU442	7083.39256078	4.3872954911	;
JU443	7055.52553535	3.98952719888	;
JU444	7089.20609233	4.73551220592	;
JU445	7048.09656085	4.86618253968	;
JU446	7049.42059963	3.53148184414	;
JU447	7032.2678781	2.70047117394	;
JU448	7056.18372471	2.52566051808	;
JU449	7077.10260026	2.09352469669	;
JU450	7045.6926916	2.69342785331	;
JU451	7072.2547575	3.45598493533	;
JU452	7040.36675103	1.81153618827	;
JU453	7068.76230164	3.98027750699	;
JU454	7083.36080584	4.75640654514	;
JU455	7064.80065345	6.79719572724	;
JU456	7092.25453802	2.36453413176	;
JU457	7036.62365016	2.76524321557	;
JU458	7089.02973749	4.27411497297	;
JU459	7047.62799497	4.6671735317	;
JU460	7102.36417824	2.00867391975	;
JU461	7096.20393814	4.14708917411	;
JU462	7095.4796875	5.65942083333	;
JU463	7101.5372428	3.55933271605	;
JU464	7091.06532922	4.6671882716	;
JU465	7088.64568355	3.99691909563	;
JU466	7031.59678819	4.68962616812	;
JU467	7055.89862855	5.63892409101	;
JU468	7071.4871187	4.16340650206	;
JU469	7127.83038349	2.06107419367	;
JU470	7083.73333333	1.415925	;
JU471	7040.94971658	3.13931507049	;
JU472	7155.54017361	7.77726717593	;
JU473	7049.87267361	2.08659583333	;
JU474	7106.51125	6.58293	;
JU475	7088.44791667	0.50275	;
JU476	7078.97845765	2.86029459234	;
JU477	7102.5700823	3.4960617284	;
JU478	7099.25003854	3.03065944067	;
JU479	7055.44105052	3.60299995149	;
JU480	7080.71771634	5.52040390914	;
JU481	7069.1439836	5.01619350597	;
JU482	7101.32497428	4.37711934156	;
JU483	7099.10791181	5.9866891724	;
JU484	7077.37314976	4.37183194262	;
JU485	7059.1809931	3.98378791093	;
JU486	7117.20768805	3.48282439665	;
JU487	7073.04524594	4.95397399559	;
JU488	7093.29942769	4.25006168794	;
JU489	7051.89563683	2.95879986283	;
JU490	7088.26315104	1.00326458333	;
JU491	7106.91341725	2.69999739583	;
JU492	7121.22265625	7.37975	;
JU493	7085.57486989	4.89952525642	;
JU494	7147.55208333	6.75664583333	;
JU495	7068.28839628	36.9841597162	;
JU496	7079.89041921	3.37375104749	;
JU497	7078.21295849	3.71721586163	;
JU498	7129.02962809	3.30193724244	;
JU499	7077.68215268	4.99195081263	;
JU500	7089.63050338	5.51350889624	;
JU501	7051.74355159	4.53285664683	;
JU502	7034.99074074	7.38843981481	;
JU503	7041.2891268	3.61404565329	;
JU504	7048.6715535	3.21209472737	;
JU505	7049.50074286	4.74187754167	;
JU506	7047.68334913	4.84628693929	;
JU507	7102.2432942	4.72529992394	;
JU508	7092.50520833	3.26380787037	;
JU509	7054.35022846	2.36467253027	;
JU510	7063.67048611	7.34239693133	;
JU511	7081.75095494	6.4203050004	;
JU512	7068.26441212	2.40174926742	;
JU513	7080.99435764	2.24259895833	;
JU514	7066.94140848	1.76388683291	;
JU515	7090.32582706	2.67637809314	;
JU516	7065.93638475	2.29638055439	;
JU517	7050.74448609	1.94529597097	;
JU518	7065.93638475	2.29638055439	;
JU519	7048.92497668	1.99597276229	;
JU520	7073.79207252	2.46186676712	;
JU521	7103.56926211	3.1800105484	;
JU522	7047.50012217	3.12004378086	;
JU523	7077.44439496	3.78139409265	;
JU524	7036.49089863	2.34102859182	;
JU525	7101.73536545	4.69755854167	;
JU526	7156.80828511	0.961805156893	;
JU527	7156.80828511	0.961805156893	;
JU528	7173.01012731	3.30753217593	;
JU529	7094.81130152	4.61089580639	;
JU530	7125.23709973	0.785464898405	;
JU531	7125.23709973	0.785464898405	;
JU532	7135.12237534	0.837120622749	;
JU533	7135.12237534	0.837120622749	;
JU534	7094.43576235	1.80227030864	;
JU535	7086.24302881	4.12441167695	;
JU536	7105.30768015	5.02841059921	;
JU537	7105.25692419	3.72314841435	;
JU538	7072.57738117	4.06700550926	;
JU539	7101.69607433	3.73523075944	;
JU540	7073.47214812	6.94478578639	;
JU541	7052.48321759	5.79167766204	;
JU542	7096.27979761	3.34354976275	;
JU543	7058.00384424	4.9609605925	;
JU544	7094.07788341	2.88504028384	;
JU545	7102.73574418	4.05409769702	;
JU546	7115.0128708	2.4756874273	;
JU547	7092.67890017	3.79997394406	;
JU548	7089.16604938	3.41994135802	;
JU549	7078.73470719	3.02798104854	;
JU550	7101.6210178	1.81095861183	;
JU551	7010.21296296	7.96544444444	;
JU552	7063.90770679	3.45682380247	;
JU553	7113.05082569	1.22424126571	;
JU554	7086.51647625	4.88561593543	;
JU555	7095.83694306	3.7367210472	;
JU556	7138.63975694	5.65127170139	;
JU557	7074.94571036	3.7491568287	;
JU559	7097.40946502	3.42404115226	;
JU560	7093.34567956	6.53351665675	;
JU561	7077.23951524	2.8675928314	;
JU562	7074.92888082	2.37557891463	;
JU563	7051.19339198	6.86649074074	;
JU564	7054.44712095	0.745849074074	;
JU565	7062.85540469	6.01293049292	;
JU566	7083.4986738	2.25992893519	;
JU567	7040.63375362	6.04473200424	;
JU568	7096.18257999	3.37109665533	;
JU569	7071.62403156	1.62942035147	;
JU570	7121.36109995	4.88940812234	;
JU571	7082.329225	4.21783667925	;
JU572	7128.07366071	4.32373385141	;
JU573	7082.73570168	2.34606215856	;
JU574	7130.49170909	3.47244241008	;
JU575	7085.25650549	2.86693010204	;
JU576	7071.88401693	6.10653185764	;
JU577	7080.50928799	4.79259415816	;
JU578	7095.67144097	6.38615289352	;
JU579	7081.21063448	2.12846623841	;
JU580	7089.0186589	2.28749041718	;
JU581	7100.80891987	3.4108871154	;
JU582	7077.25422318	4.1098500009	;
JU583	7035.45830304	3.73477832386	;
JU584	7134.25847817	4.54699474809	;
JU585	7103.9628943	5.37100162537	;
JU586	7086.53368607	4.40762814815	;
JU587	7064.2307844	3.05260576605	;
JU588	7090.78502489	4.48798444649	;
JU589	7094.72251157	3.50836152778	;
JU590	7110.21732639	6.16036263889	;
JU591	7085.77004204	4.9765953562	;
JU592	7031.69814815	5.19872314815	;
JU593	7094.98501732	3.07661329617	;
JU594	7109.0	6.77591111111	;
JU595	7091.65192442	4.84405072498	;
JU596	7064.53967904	4.06597962963	;
JU597	7075.02012472	5.01126148148	;
JU598	7059.09719329	3.13169853395	;
JU599	7069.18785079	4.07719039495	;
JU600	7069.60424486	4.43562138724	;
JU601	7094.07386672	5.04790136656	;
JU602	7074.24043452	6.36939642366	;
JU603	7093.07908432	3.12848015847	;
JU604	7088.39718885	4.56920225684	;
JU605	7080.6575	4.5567525	;
JU606	7082.07577518	4.27027816277	;
JU607	7086.54949546	5.00801040389	;
JU608	7107.7045	3.460424	;
JU609	7109.86225	3.08951477778	;
JU610	7151.97833595	1.35430965428	;
JU611	7127.0042971	2.149318708	;
JU612	7087.35683043	5.16420454697	;
JU613	7073.05297557	2.0754250751	;
JU614	7146.57937007	3.65926803457	;
JU615	7090.92103909	2.59088168724	;
JU616	7149.14996682	2.05165123071	;
JU617	7058.16341146	4.09461371528	;
JU618	7111.00040741	4.55445848148	;
JU619	7110.6343248	4.11900713495	;
JU620	7147.93484414	7.31089643789	;
JU621	7095.28728983	4.73707122795	;
JU622	7062.41644572	3.30739642312	;
JU623	7078.96784388	5.72153924657	;
JU624	7143.05213638	0.965546688529	;
JU625	7154.14992043	0.968592255015	;
JU626	7039.6488552	5.27113202186	;
JU627	7108.31467333	3.01960632795	;
JU628	7102.00142991	4.45772416864	;
JU629	7062.86092062	3.2658157247	;
JU630	7083.29465234	3.60345829643	;
JU631	7045.0269482	3.50506884793	;
JU632	7090.722696	3.73375033069	;
JU633	7086.45401231	3.20956377551	;
JU634	7082.80211111	3.17207835185	;
JU635	7089.7895413	2.24880420918	;
JU636	7070.81214185	3.68977581218	;
JU637	7114.76423103	6.31015998371	;
JU638	7029.80760194	2.72893211204	;
JU639	7066.49497675	5.19419733035	;
JU640	7095.14541667	7.82316472222	;
JU641	7064.24441189	4.0596953125	;
JU642	7055.6171702	2.14375800773	;
JU643	7073.98345734	2.19448075397	;
JU644	7099.12712518	4.58041266758	;
JU645	7095.95950304	5.08730296007	;
JU646	7075.89007459	3.86375056584	;
JU647	7149.27300591	5.62980830933	;
JU648	7110.65122081	4.7162291364	;
JU649	7132.64816866	1.94954103092	;
JU650	7089.62470511	4.20273216735	;
JU651	7093.81166409	3.11173006687	;
JU652	7085.06624866	5.32986569088	;
JU653	7126.12808095	4.06015200256	;
JU654	7106.13941579	6.34101368629	;
JU655	7099.09722222	0.614472222222	;
JU656	7075.10364395	3.10228059873	;
JU657	7090.4187143	3.07261524631	;
JU658	7089.20296251	3.35389993354	;
JU659	7100.42734115	3.59656128028	;
JU660	7080.56980767	3.06743372396	;
JU661	7061.09028135	3.67344548754	;
JU662	7076.85756443	2.74595950806	;
JU663	7091.02893519	1.99884027778	;
JU664	7108.9599537	1.55490092593	;
JU665	7059.32018225	4.82985840394	;
JU666	7056.34396605	2.59966550154	;
JU667	7098.55924561	4.97422351208	;
JU668	7082.47802629	2.13402976666	;
JU669	7067.84370321	4.6474576117	;
JU670	7110.7165404	6.62200462963	;
JU671	7072.40684878	1.97754822846	;
JU672	7086.15617312	3.72162730195	;
JU673	7057.03727101	3.12009444396	;
JU674	7081.39526186	2.60635970775	;
JU675	7074.42139612	5.47084615162	;
JU676	7085.14581604	3.36058114826	;
JU677	7070.76373609	3.33728345557	;
JU678	7079.20948362	3.61738675655	;
JU679	7100.74006019	5.34310287037	;
JU680	7118.19860283	3.63753813775	;
JU681	7095.83333333	3.86558333333	;
JU682	7039.77398056	4.09986719667	;
JU683	7134.3907916	5.88685352168	;
JU684	7138.18441197	2.70131555497	;
JU685	7100.91875	2.239825	;
JU686	7091.47913759	3.26715690741	;
JU687	7124.86532118	4.29508188657	;
JU688	7121.43018812	2.88899676661	;
JU689	7068.20453813	3.80738283107	;
JU690	7095.173759	4.72507483025	;
JU691	7103.55181731	5.79368220968	;
JU692	7115.88802207	3.46279010913	;
JU693	7060.27640584	5.74464961586	;
JU694	7089.57096085	3.79293936014	;
JU695	7099.88229101	4.25672834297	;
JU696	7095.36160735	3.78726566176	;
JU697	7111.99181124	3.50419882479	;
JU698	7092.48402778	1.36973083333	;
JU699	7085.02152392	2.12087291204	;
JU700	7063.39158608	4.19397646685	;
JU701	7125.30388812	3.85252949165	;
JU702	7021.24691358	4.60301234568	;
JU703	7100.85612944	2.95300259163	;
JU704	7044.48344907	4.10992824074	;
JU705	7154.59691358	3.28792648148	;
JU706	7120.41744189	4.50139595442	;
JU707	7065.95173817	2.35166524452	;
JU708	7056.56403976	4.23410004956	;
JU709	7110.29921181	3.20419401389	;
JU710	7120.109375	1.256875	;
JU711	7124.29506853	3.67033028864	;
JU712	7056.06439113	3.62157341941	;
JU713	7087.09614472	3.44437900128	;
JU714	7107.16080729	4.78053081597	;
JU715	7062.71832747	1.63322690418	;
JU716	7113.69333333	5.58318	;
JU717	7089.9843379	2.60395913169	;
JU718	7105.42444514	3.29785999907	;
JU719	7042.89497092	3.19227366667	;
JU720	7081.48004513	2.93162058919	;
JU721	7052.31047804	4.92949400384	;
JU722	7064.41238308	2.70140818452	;
JU723	7142.06308642	4.60259962963	;
JU724	7057.31310847	3.4952127425	;
JU725	7090.76425913	3.7997690529	;
JU726	7060.55113754	3.884162914	;
JU727	7054.59114932	3.87898073927	;
JU728	7058.88708063	2.66152502333	;
JU729	7077.01897762	3.65396707088	;
JU730	7054.59114932	3.87898073927	;
JU731	7057.31310847	3.4952127425	;
JU732	7094.31884616	4.0350901731	;
JU733	7060.55113754	3.884162914	;
JU734	7083.09989219	2.2535004068	;
JU735	7063.26261574	6.55443364198	;
JU736	7099.70213632	5.09800119086	;
JU737	7083.04003906	4.38077007755	;
JU738	7048.60866227	3.91753081816	;
JU739	7071.74179688	5.58537320602	;
JU740	7110.94907407	3.52251851852	;
JU741	7149.93694842	5.11113282154	;
JU742	7102.11218012	3.49674303109	;
JU743	7093.62036322	4.14593554954	;
JU744	7155.87963122	6.96008711634	;
JU745	7081.41533203	4.64880839844	;
JU746	7073.18449337	3.49815530045	;
JU747	7075.90884658	3.39971051185	;
JU748	7119.8910745	1.8877446791	;
JU749	7081.72049386	4.93957003348	;
JU750	7030.9581814	3.50700520916	;
JU751	7066.67131438	4.79083689236	;
JU752	7029.71375661	2.95447671958	;
JU753	7081.42361111	1.59204166667	;
JU754	7066.48273358	5.42424093083	;
JU755	7043.38439972	3.43243572346	;
JU756	7081.64222222	4.47514222222	;
JU757	7096.37114074	2.28824669259	;
JU758	7082.10856551	4.38679838426	;
JU759	7055.32188799	3.25767699833	;
JU760	7063.62227335	3.26502850279	;
JU761	7082.73667195	3.27240898117	;
JU762	7095.35593569	5.70681950322	;
JU763	7061.40554854	3.34411265056	;
JU764	7055.10123677	6.92334578042	;
JU765	7095.54281746	6.55114367725	;
JU766	7097.39472328	3.49795026609	;
JU767	7088.12273104	3.65588983914	;
JU768	7088.44051215	4.92902914187	;
JU769	7091.52623115	5.32918247809	;
JU770	7093.60400113	3.56800488946	;
JU771	7084.02613169	3.45372119342	;
JU772	7088.96945747	3.35492793403	;
JU773	7095.65234375	2.70228125	;
JU774	7074.62857476	3.40852173059	;
JU775	7077.25527744	3.53274754419	;
JU776	7065.21984926	4.88654828586	;
JU777	7089.13875896	5.91246921963	;
JU778	7141.9249837	6.52917890857	;
JU779	7045.06410431	4.24457558792	;
JU780	7086.53705404	2.54253085937	;
JU781	7064.61437586	3.22970101814	;
JU782	7087.25	7.57020666667	;
JU783	7088.05	7.39952733333	;
JU784	7083.33297164	7.71572048611	;
JU785	7038.61354311	5.03872272762	;
JU786	7081.89866657	7.5118353588	;
JU787	7036.95833333	4.69751851852	;
JU788	7040.11062572	5.59434854488	;
JU789	7045.24675926	6.24370123457	;
JU790	7100.91753472	2.96764930556	;
JU791	7082.73757179	3.23688798115	;
JU792	7075.35568802	5.14370294372	;
JU793	7045.02069548	2.7522439596	;
JU794	7022.67271376	4.12949062643	;
JU795	7121.22265625	7.37975	;
JU796	7127.87321174	3.35403742408	;
JU797	7065.93638475	2.29638055439	;
JU798	7157.86851852	2.77736429012	;
JU799	7108.4059537	6.91155850077	;
JU800	7113.6616808	6.80818739507	;
JU801	7037.79414924	3.37425608625	;
JU802	7106.05202482	2.69226997942	;
JU803	7110.34718568	3.61249673412	;
JU804	7098.18983484	3.02513464047	;
JU805	7074.17930861	2.63668427927	;
JU806	7067.23673098	4.77535805496	;
JU807	7102.13446502	6.6585182716	;
JU808	7119.85039383	4.56258384207	;
JU809	7081.58403993	5.29835421346	;
JU810	7073.24365623	2.62923529165	;
JU811	7109.09789397	3.45543587465	;
JU812	7118.0625	3.42646597222	;
JU813	7124.53148162	3.53706827527	;
JU814	7068.36712211	3.26888749294	;
JU815	7091.55552372	3.91531567799	;
JU816	7096.21279203	3.72087335802	;
JU817	7080.56980767	3.06743372396	;
JU818	7109.37402703	5.08170549421	;
JU819	7090.39880885	4.66493973498	;
JU820	7075.4094091	4.03630564075	;
JU821	7060.40084484	3.75613895837	;
JU822	7055.08856481	3.67816833333	;
JU823	7154.07916667	4.37101631944	;
JU824	7074.69408844	4.72065436198	;
JU825	7169.79166667	4.47553541667	;
JU826	7107.5911281	5.68496443582	;
JU827	7087.88212671	3.43579502838	;
JU828	7090.81104238	3.84246589318	;
JU829	7059.42205093	4.3176829537	;
JU830	7073.95201476	4.50386911911	;
JU831	7080.66612326	5.53315618981	;
JU832	7071.21669346	4.21954316509	;
JU833	7079.67863333	3.90499166914	;
JU834	7073.0489321	3.38585417438	;
JU835	7088.29029492	2.84645368227	;
JU836	7051.95985749	3.00289589361	;
JU837	7086.64952274	3.90299037859	;
JU838	7135.98871736	5.28703583773	;
JU839	7073.18123553	2.35612268346	;
JU840	7085.32033264	4.28053119373	;
JU841	7080.29949244	5.09816571129	;
JU842	7071.32983333	3.50527369547	;
JU843	7068.32417659	4.1949483564	;
JU844	7095.80598169	2.96549886101	;
JU845	7098.98967978	1.79297460134	;
JU846	7042.02571922	5.61927315338	;