[TITLE]
Generated synthetic network;

[JUNCTIONS]
;ID	Elev	Demand	Pattern
JU1	7094.84268904	4.75369431584	;
JU3	7093.15828704	7.02763416667	;
JU4	7036.58333333	6.293	;
JU5	7056.81820409	3.82201394676	;
JU6	7063.68435828	6.44112102623	;
JU7	7044.24950386	4.28208039352	;
JU8	7117.78401003	6.21545331019	;
JU9	7134.4621875	5.04912020833	;
JU10	7097.06470881	5.63883635828	;
JU11	7096.06571373	5.51776952932	;
JU12	7056.92676183	2.98588520233	;
JU13	7105.30858161	4.97579640653	;
JU14	7016.54431481	2.46364048148	;
JU15	7092.38292824	5.0011400463	;
JU16	7076.02779997	3.26962099785	;
JU17	7093.14430093	5.00014321759	;
JU18	7058.90557798	1.56023991609	;
JU19	7088.64813533	3.2057744521	;
JU20	7081.77685185	4.12311111111	;
JU21	7098.14866175	5.44428159722	;
JU22	7114.66757433	4.80676561857	;
JU23	7048.63635567	3.60716896681	;
JU25	7128.35678951	3.86177158025	;
JU26	7088.22986796	4.10677706115	;
JU27	7071.79166667	5.38827777778	;
JU28	7088.24595231	5.953332102	;
JU29	7060.95388809	4.4742664937	;
JU30	7088.008682	3.98772449653	;
JU31	7095.63580583	4.31324519917	;
JU32	7088.80990289	4.36598562428	;
JU33	7092.83503482	4.97390926631	;
JU34	7106.82796358	5.86050241936	;
JU35	7078.01921761	5.70279756468	;
JU36	7091.7539662	5.63777151861	;
JU37	7037.72793981	6.49043699074	;
JU38	7067.97816262	5.04723860532	;
JU39	7060.14369625	5.11966584635	;
JU40	7069.56964151	5.41301728335	;
JU41	7032.13633193	4.25000503606	;
JU42	7040.95309783	5.04901148888	;
JU43	7046.44172128	4.75230948423	;
JU44	7042.57745438	4.8264938532	;
JU45	7044.53941033	5.39253882128	;
JU46	7070.68134645	4.56944579475	;
JU47	7037.0690203	5.87032060426	;
JU48	7089.32882524	4.74339414616	;
JU49	7090.40503559	3.79764842485	;
JU50	7126.0716222	5.44941614826	;
JU51	7082.20701213	3.84825959036	;
JU52	7075.54031113	3.32868563977	;
JU53	7073.5796293	3.13369602884	;
JU54	7077.1377426	2.47486357745	;
JU55	7084.95294537	2.16394067762	;
JU56	7105.43897193	3.29755379142	;
JU57	7109.17998235	3.9127413479	;
JU58	7140.83767597	4.61322380855	;
JU59	7087.88252728	3.98437008929	;
JU60	7049.06924433	4.8743211436	;
JU61	7109.20075373	5.54371164352	;
JU62	7121.89544259	2.22714364815	;
JU63	7077.25	2.73324074074	;
JU64	7062.65052308	3.76553205665	;
JU65	7056.09766049	3.61404802469	;
JU66	7155.50284965	5.70481047002	;
JU67	7103.43493924	4.09232174383	;
JU68	7059.2574282	3.22438122106	;
JU69	7047.93696952	5.28769704861	;
JU70	7051.44671224	150.413811751	;
JU71	7127.99697531	1.63879561728	;
JU72	7089.75340278	5.98715226852	;
JU73	7123.35476693	4.16200794295	;
JU74	7042.21373457	2.14531018519	;
JU75	7123.92928683	2.03102763786	;
JU76	7088.78748614	3.59255248722	;
JU77	7055.77777778	0.692	;
JU78	7077.90806746	4.29620070531	;
JU79	7093.40277157	4.46909736854	;
JU80	7146.92655165	1.79882421071	;
JU81	7082.68655342	4.03361647513	;
JU82	7066.76807485	2.31488334606	;
JU83	7102.86212929	2.10510437739	;
JU84	7041.46763889	3.91879111111	;
JU85	7051.70440625	3.96004243056	;
JU86	7040.46511188	5.78294251543	;
JU87	7047.76623457	4.31869320988	;
JU88	7083.30833884	3.74029365079	;
JU89	7071.94354001	5.12647100529	;
JU90	7142.55159367	3.85116111691	;
JU91	7078.57016782	4.3994329186	;
JU92	7086.54086806	5.19951979167	;
JU93	7105.61111111	5.03381481481	;
JU94	7088.68509645	5.4973967464	;
JU95	7067.36361307	1.34741958756	;
JU96	7107.73280345	3.98697347369	;
JU97	7102.91495673	5.22735052628	;
JU98	7092.47561628	4.02201343843	;
JU99	7075.51118244	4.08477266113	;
JU100	7136.52222842	5.94468105159	;
JU101	7089.60287212	4.1239046019	;
JU102	7095.74475626	3.75422808499	;
JU103	7055.56529607	2.37399553075	;
JU104	7074.19148305	3.81167716755	;
JU105	7044.59155273	1.96666011285	;
JU106	7105.52574396	5.751391558	;
JU107	7079.87911271	3.70018952621	;
JU108	7058.6759545	4.91039134659	;
JU109	7101.05475512	2.94055869121	;
JU110	7080.47546218	1.8531876623	;
JU111	7046.87229375	3.48190692056	;
JU112	7073.06958912	1.65794068287	;
JU113	7114.25098313	4.03635222553	;
JU114	7085.74453965	5.39052888079	;
JU115	7073.04819136	4.21240124691	;
JU116	7122.40310802	4.2322082963	;
JU117	7082.6953606	3.01484421605	;
JU118	7102.42455247	4.18979294753	;
JU119	7171.66190972	5.04914201389	;
JU120	7100.27106264	4.38416097922	;
JU121	7070.16632559	4.32283740415	;
JU122	7068.83594172	3.88396493706	;
JU123	7101.05346545	4.44374306021	;
JU124	7061.21030816	3.38306336806	;
JU125	7103.88078704	6.39462268519	;
JU126	7121.625	2.538125	;
JU127	7071.47988281	3.58605078125	;
JU128	7059.55560376	2.22802125467	;
JU129	7130.36779311	2.11105081245	;
JU130	7132.58053801	3.77373372391	;
JU131	7079.83843561	4.49975718255	;
JU132	7069.19195777	4.69569943883	;
JU133	7086.53242167	5.06614783421	;
JU134	7096.84973958	4.03824994213	;
JU135	7074.22166387	2.776134303	;
JU136	7115.45133572	4.32152757648	;
JU137	7055.40124984	6.70231646573	;
JU138	7100.16574513	3.88890054655	;
JU139	7106.30602425	3.94098989242	;
JU140	7101.99884259	2.42944592593	;
JU141	7072.98757523	4.99819009259	;
JU142	7062.69278208	5.19739382115	;
JU143	7038.77050686	4.61237571331	;
JU144	7069.68767037	5.49507602248	;
JU145	7068.26924651	5.65574762496	;
JU146	7053.12709373	5.87860550756	;
JU147	7036.66665256	4.81054426666	;
JU148	7037.48796559	4.32675246132	;
JU149	7043.2102191	4.96200086547	;
JU150	7114.96930568	2.31146185137	;
JU151	7059.56603652	5.1640005144	;
JU153	7068.15529571	5.23567548834	;
JU154	7114.35208333	5.49468200231	;
JU155	7068.21527778	3.58949537037	;
JU156	7065.71778279	4.31965680649	;
JU157	7098.04352623	5.47933188272	;
JU158	7091.66470594	4.59485384341	;
JU159	7126.1100463	2.56271472222	;
JU160	7167.25740741	4.37318518519	;
JU161	7153.11226852	4.65329398148	;
JU162	7056.94662326	3.34267896219	;
JU163	7108.08853576	5.71207530234	;
JU164	7081.59113475	3.80136688843	;
JU165	7117.83054733	2.10101055144	;
JU166	7108.50519151	3.07413641623	;
JU167	7156.96569792	4.42947302431	;
JU168	7095.55305742	5.61707740326	;
JU169	7084.63554877	5.23592135399	;
JU170	7085.5396768	4.86357063559	;
JU171	7076.24007899	4.31642348785	;
JU172	7061.15353252	4.00294381001	;
JU173	7137.3610733	5.68722001852	;
JU174	7077.65556413	4.85832218793	;
JU175	7133.31852083	3.85142318056	;
JU176	7068.01711833	4.32760518754	;
JU177	7070.48320304	3.68516653107	;
JU178	7052.54171875	2.99881847222	;
JU179	7029.58940683	2.45559867839	;
JU180	7050.83003472	3.34296180556	;
JU181	7075.34133951	1.90807308385	;
JU182	7069.81093488	2.53863348263	;
JU183	7096.08379232	1.04378099826	;
JU184	7077.16741463	2.16723677582	;
JU185	7060.47814257	4.33418352791	;
JU186	7128.25127197	3.73940495787	;
JU187	7084.19653987	2.42261698566	;
JU188	7101.00009825	3.59154563033	;
JU189	7096.61822955	4.30244747222	;
JU190	7092.97622222	2.81435305556	;
JU191	7125.36215278	4.70768138889	;
JU192	7109.21032182	5.20401570216	;
JU193	7086.85585376	5.08574503619	;
JU194	7072.17226807	62.8110591434	;
JU195	7051.23906428	2.55862227363	;
JU196	7055.98977961	2.39233240849	;
JU197	7098.9687305	1.25239062261	;
JU198	7095.82471708	5.1972345679	;
JU199	7057.6169673	3.60247221412	;
JU200	7058.79617151	3.31947737164	;
JU201	7034.98982774	2.95463401608	;
JU202	7049.59999737	2.83930830544	;
JU203	7063.08635151	2.00455433124	;
JU204	7043.58492477	2.65535358796	;
JU205	7041.60165795	2.00590652351	;
JU206	7034.98982774	2.95463401608	;
JU207	7120.28437548	4.1633922338	;
JU208	7078.38530591	3.19375402526	;
JU209	7152.99592593	7.84387333333	;
JU210	7084.13591988	4.49355059049	;
JU211	7077.34336651	2.23901220743	;
JU212	7052.83426605	2.94745970829	;
JU213	7128.55973856	4.31163251886	;
JU214	7092.92812822	4.98705523405	;
JU215	7057.36824074	3.945081875	;
JU216	7083.42052469	4.73727623457	;
JU217	7118.4234916	2.69206009094	;
JU218	7090.20234241	3.58531705424	;
JU219	7107.49866135	4.13628964142	;
JU220	7100.57914732	2.41159606845	;
JU221	7114.91768351	3.44002310832	;
JU222	7141.16355198	5.05873616714	;
JU223	7097.92367675	2.45486674446	;
JU224	7101.0100463	6.30423854167	;
JU225	7054.42931224	3.8887565902	;
JU226	7148.02897321	5.66622981151	;
JU227	7155.02136409	5.37949577133	;
JU228	7073.69542101	3.88746138889	;
JU229	7070.09033342	4.1058741172	;
JU230	7071.97037196	2.78876984351	;
JU231	7070.79453263	2.68565068119	;
JU232	7103.72881484	5.55428841371	;
JU233	7072.65990333	3.14282057696	;
JU234	7086.30047988	3.13378702257	;
JU235	7103.83343027	4.77893325405	;
JU236	7156.9020826	5.65613356032	;
JU237	7080.09578475	3.49361105746	;
JU238	7096.7531889	4.17301673177	;
JU239	7107.90085648	6.13512666667	;
JU240	7043.78617477	0.900127199074	;
JU241	7072.49093758	3.5967801418	;
JU242	7098.75217475	0.843992075573	;
JU243	7106.41713456	4.70275546416	;
JU244	7096.02446072	4.28619075907	;
JU245	7153.66909293	6.21237308935	;
JU246	7066.64097521	2.9224932194	;
JU247	7041.20682192	5.14165587384	;
JU248	7079.77497787	3.93722615721	;
JU249	7071.89467593	2.176325	;
JU250	7060.29386074	4.17101870542	;
JU251	7113.84261416	4.60532997507	;
JU252	7081.70938272	5.88638049383	;
JU253	7083.62625521	4.54676853395	;
JU254	7113.11582975	3.57450929174	;
JU255	7080.67565068	3.76631241664	;
JU256	7124.36154514	3.92930555556	;
JU257	7094.1560538	5.31477382562	;
JU258	7101.62408522	5.83896827075	;
JU259	7149.80098148	5.18430814815	;
JU260	7099.37704028	4.02071644243	;
JU261	7031.00130071	3.71674216931	;
JU262	7077.12055041	3.954906893	;
JU263	7068.36062529	4.77525471654	;
JU264	7075.45975116	5.07721493056	;
JU265	7034.0215289	4.68448470274	;
JU266	7031.17528781	4.03889420988	;
JU267	7057.00302984	6.36129269547	;
JU268	7034.0215289	4.68448470274	;
JU269	7085.14226466	6.77954079861	;
JU270	7081.59265689	6.60726643519	;
JU271	7102.92833119	3.13828523497	;
JU272	7056.81375	7.33037824074	;
JU273	7060.9351256	6.80437093195	;
JU274	7147.3075	4.092075	;
JU275	7137.39717144	4.14903421441	;
JU276	7093.97056052	1.64798509682	;
JU277	7080.60635602	4.47369931956	;
JU278	7091.29707672	3.65240866798	;
JU279	7069.48661202	6.84379389218	;
JU280	7056.36518753	4.41423973475	;
JU281	7141.74320513	5.03358184509	;
JU282	7102.17503029	4.23857786205	;
JU283	7062.73525184	3.11728879705	;
JU284	7077.86868334	3.3003279654	;
JU285	7114.15619704	6.65360075645	;
JU286	7096.18480997	3.13093062262	;
JU287	7104.83226459	3.19093167389	;
JU288	7110.24586117	3.32931923306	;
JU289	7090.81979129	2.56880074338	;
JU290	7050.33798264	3.04230724537	;
JU291	7080.86973264	4.3149637963	;
JU292	7104.34929144	3.6181796157	;
JU293	7096.79106996	4.13927363512	;
JU294	7090.52474282	5.35411263865	;
JU295	7080.64311521	3.30380490888	;
JU296	7070.08248322	1.06537736144	;
JU297	7096.22830382	4.46293522608	;
JU298	7077.451413	5.06960088735	;
JU299	7084.13429911	3.08116852946	;
JU300	7097.47660494	4.94558121605	;
JU301	7091.17381409	3.70018543837	;
JU302	7090.77252264	4.29919001247	;
JU303	7067.7417545	3.2175709418	;
JU304	7082.54411632	3.6970270544	;
JU305	7141.74320513	5.03358184509	;
JU306	7091.74510417	4.93135844907	;
JU307	7085.59162917	5.27991795756	;
JU308	7083.39868671	4.2946066313	;
JU309	7086.48094591	3.32352731958	;
JU310	7122.44183921	3.45422113412	;
JU311	7061.21030816	3.38306336806	;
JU312	7079.37857226	2.1547390118	;
JU313	7097.32724892	4.90020606476	;
JU314	7097.41682871	3.51997379721	;
JU315	7103.22469057	5.41857917611	;
JU316	7058.06695161	5.36611559744	;
JU317	7078.12085468	3.55353165789	;
JU318	7100.35210648	4.40305577932	;
JU319	7079.69229066	2.60501644344	;
JU320	7100.4353888	4.99777937414	;
JU321	7110.20380015	2.96278359697	;
JU322	7075.36965667	3.44552919026	;
JU323	7081.97906104	3.29663338427	;
JU324	7049.83426649	350.152583181	;
JU325	7072.85207707	2.2424419815	;
JU326	7063.03939881	5.50685365138	;
JU327	7068.21464212	4.83866983245	;
JU328	7084.84321304	4.85500690161	;
JU329	7079.35506565	3.06432431043	;
JU330	7124.70575443	5.36339526689	;
JU331	7089.59929478	5.64854939543	;
JU332	7073.98770088	5.10349938767	;
JU333	7111.81979657	5.39747618959	;
JU334	7056.59954079	4.42895540231	;
JU335	7119.55314892	5.47212106933	;
JU336	7055.12251333	7.38149276	;
JU337	7082.75583737	4.37227934555	;
JU338	7087.14201354	3.20909987576	;
JU339	7080.24115493	3.69645768435	;
JU340	7087.54436454	3.80753994192	;
JU341	7103.69864353	4.84530666513	;
JU342	7112.63992794	3.75739683118	;
JU343	7118.25398843	3.84976327246	;
JU344	7068.91308981	4.32785311574	;
JU345	7101.14518201	4.29766310702	;
JU346	7100.77698363	5.16097916663	;
JU347	7093.75601389	1.35287083333	;
JU348	7100.1708994	5.86841893666	;
JU349	7119.05396228	4.62976396826	;
JU350	7074.27028435	4.02876859058	;
JU351	7065.34125	4.20663785494	;
JU352	7080.65804563	4.22158162698	;
JU353	7080.92281306	3.13346990003	;
JU354	7031.64687596	6.21110691551	;
JU355	7037.0690203	5.87032060426	;
JU356	7051.85360886	7.08159060571	;
JU357	7060.33492155	7.45744331276	;
JU358	7035.94389146	3.50837712191	;
JU359	7079.35506565	3.06432431043	;
JU360	7084.84321304	4.85500690161	;
JU361	7143.65364949	5.52851699192	;
JU362	7084.69949846	5.88379279707	;
JU363	7057.08510031	2.00345015123	;
JU364	7106.68932289	4.0147515062	;
JU365	7076.5670573	4.83522775021	;
JU366	7050.75549551	3.18050606108	;
JU367	7080.92839716	2.35051906569	;
JU368	7097.15311053	4.84324392361	;
JU369	7096.84722222	1.95513888889	;
JU370	7104.52374831	5.14424200682	;
JU371	7057.41482012	4.82474365962	;
JU372	7082.07912147	4.09649579084	;
JU373	7063.10414714	81.8628184371	;
JU374	7120.0435489	5.33583259838	;
JU375	7091.16015642	2.91017262852	;
JU376	7055.76130058	2.62029048354	;
JU377	7076.62544204	3.37203132659	;
JU378	7057.88311399	3.32228308678	;
JU379	7084.48221383	3.53177062198	;
JU380	7158.76139716	5.01747276372	;
JU381	7131.11826445	5.04967148273	;
JU382	7101.71042151	3.921564729	;
JU383	7042.22892253	2.93032378472	;
JU384	7104.65620812	4.41184333116	;
JU385	7038.15048868	3.687675	;
JU386	7083.28773632	1.98382170282	;
JU387	7090.12090899	8.05104902478	;
JU388	7076.50762063	2.84918360451	;
JU389	7072.17030165	2.85701475694	;
JU390	7063.08959901	1.64974986674	;
JU391	7087.17485504	3.70013362432	;
JU392	7052.95699576	3.56390017901	;
JU393	7069.63558772	3.7463667173	;
JU394	7061.86995116	4.69673192407	;
JU395	7090.34484979	4.47063469136	;
JU396	7065.39990958	2.61126837841	;
JU397	7039.40788727	2.19061192538	;
JU398	7080.39400606	4.14719433161	;
JU399	7122.15360243	4.11814935185	;
JU400	7070.55080183	4.37851099537	;
JU401	7070.83155056	4.02856961194	;
JU402	7093.25560302	3.60087635416	;
JU403	7135.01368634	5.8789109375	;
JU404	7095.44254988	2.03164195831	;
JU405	7112.68614969	3.83711818416	;
JU406	7042.21373457	2.14531018519	;
JU407	7083.96761972	3.81482732111	;
JU408	7103.70574074	3.2258062963	;
JU409	7095.06069551	3.50988467942	;
JU410	7076.18076752	3.73311254969	;
JU411	7108.50688371	4.18286390104	;
JU412	7087.65795764	3.36526809802	;
JU413	7067.92623232	6.52949412599	;
JU414	7090.3417372	4.51591443866	;
JU415	7132.93452496	2.46611212222	;
JU416	7120.28437548	4.1633922338	;
JU417	7118.01286008	4.57209156379	;
JU418	7097.54584787	4.36694836587	;
JU419	7078.5978836	4.96781481481	;
JU420	7079.22991614	2.60733572677	;
JU421	7093.64685185	2.67692222222	;
JU422	7057.2765625	4.3752	;
JU423	7135.86915799	2.93630930556	;
JU424	7117.11039053	5.70063666667	;
JU425	7064.87750772	3.39649125514	;
JU426	7110.9409598	2.197470408	;
JU427	7117.72895833	3.75198228395	;
JU428	7064.80493369	3.9593023218	;
JU429	7099.91513021	5.20099046181	;
JU430	7091.28496335	2.32618028549	;
JU431	7088.05208333	4.43392824074	;
JU432	7081.82455376	4.2560267644	;
JU433	6995.8584375	3.55366541667	;
JU434	7077.64234264	5.58926433671	;
JU435	7090.89692644	3.71991988169	;
JU436	7131.41872428	3.63895679012	;
JU437	7058.75672858	2.43490487213	;
JU438	7055.22439612	6.32783718066	;
JU439	7031.91318673	5.32091734182	;
JU440	7047.5750553	5.93581732467	;
JU441	7065.848846	5.12397129618	;
JU442	7030.60170376	5.96209379384	;
JU443	7066.88143475	3.45967052768	;
JU444	7067.43350184	5.64959797118	;
JU445	7004.241875	3.38698083333	;
JU446	7078.42464735	3.39273644097	;
JU447	7081.22960883	3.35905181424	;
JU448	7051.22222222	6.55977777778	;
JU449	7052.73154012	3.97292228395	;
JU450	7078.43808513	2.35011021091	;
JU451	7146.3553125	4.02527	;
JU452	7116.70621023	5.37498462684	;
JU453	7126.1855986	5.56826683751	;
JU454	7089.49591821	2.9262066358	;
JU455	7072.45868224	4.55243394901	;
JU456	7087.29675874	4.64637851399	;
JU457	7104.67515432	4.62393055556	;
JU458	7087.51890432	4.95344701646	;
JU459	7085.03725061	2.15543366184	;
JU460	7081.59113475	3.80136688843	;
JU461	7093.1328125	2.10578541667	;
JU462	7038.92802955	4.24773370464	;
JU463	7113.48416765	3.29527594074	;
JU464	7085.70373598	4.91065160317	;
JU465	7118.64820795	2.69472300256	;
JU466	7038.26808158	1.80487383467	;
JU467	7073.46397695	4.71691729794	;
JU468	7083.97480496	3.77235627429	;
JU469	7074.65314429	3.80937600309	;
JU470	7051.4078125	2.35168307292	;
JU471	7033.97014125	2.57282291291	;
JU472	7058.91548906	3.1989781898	;
JU473	7061.97160494	2.60493024691	;
JU474	7046.92142189	2.37393521701	;
JU475	7063.08635151	2.00455433124	;
JU476	7077.53571567	3.29910416853	;
JU477	7051.23906428	2.55862227363	;
JU478	7102.85645091	4.88293121458	;
JU479	7054.32552083	0.929833333333	;
JU480	7048.74272928	3.23437483098	;
JU481	7033.97014125	2.57282291291	;
JU482	7092.52613426	4.96824469907	;
JU483	7140.98564609	4.73871917695	;
JU484	7085.62440828	6.26058390914	;
JU485	7079.10990388	2.75925409136	;
JU486	7073.61544027	4.21513168996	;
JU487	7068.92802377	4.81799436173	;
JU488	7134.26325737	4.53142310947	;
JU489	7097.67340192	5.7297309465	;
JU490	7052.83426605	2.94745970829	;
JU491	7055.77777778	0.692	;
JU492	7078.71870551	47.9157145758	;
JU493	7078.51017005	5.52161304542	;
JU494	7054.3201304	4.63382487905	;
JU495	7057.08586436	2.64975360962	;
JU496	7133.81792535	6.95679759838	;
JU497	7119.92340588	4.08118407838	;
JU498	7055.40263052	2.29721709956	;
JU499	7083.84885887	4.34796907552	;
JU500	7043.71094403	2.74278520329	;
JU501	7120.75094858	4.93369378552	;
JU502	7110.2656693	6.75093700274	;
JU503	7076.6144733	3.2714516437	;
JU504	7133.34904658	3.56481491257	;
JU505	7037.95475689	2.5094079897	;
JU506	7077.78972036	3.43366477924	;
JU507	7072.50649473	4.18727975837	;
JU508	7051.96346772	2.53963340406	;
JU509	7108.17777778	5.04883287037	;
JU510	7058.57395833	4.49722083333	;
JU511	7059.36026663	5.41850483539	;
JU512	7076.25120508	3.24480296863	;
JU513	7104.39832115	6.79646668631	;
JU514	7138.37792452	3.56257891038	;
JU515	7069.94346215	4.00940317397	;
JU516	7070.86958199	3.17829983032	;
JU517	7063.44804719	2.69580697476	;
JU518	7063.57518399	2.53524458091	;
JU519	7090.12577949	5.47773516226	;
JU520	7082.68655342	4.03361647513	;
JU521	7137.78819444	7.4542037037	;
JU522	7114.51126302	3.23949340278	;
JU523	7096.53404258	3.74885079652	;
JU524	7082.81635581	5.18683460241	;
JU525	7075.5988298	3.90574557395	;
JU526	7101.35474328	5.22858637325	;
JU527	7069.80186391	4.90588470293	;
JU528	7109.94245463	5.67212451224	;
JU529	7063.79359257	2.68864098211	;
JU530	7070.68038944	3.02177040216	;
JU531	7090.92500675	4.81971385087	;
JU532	7119.92340588	4.08118407838	;
JU533	7090.87708583	4.50416475623	;
JU534	7116.06177198	5.38005006287	;
JU535	7092.67585451	4.96358950651	;
JU536	7140.32220936	3.68484169239	;
JU537	7083.74969522	2.68482566872	;
JU538	7146.54883616	3.28724723508	;
JU539	7169.89380787	5.420015625	;
JU540	7075.96257255	4.45422414528	;
JU541	7052.74766638	4.07804283698	;
JU542	7114.04756944	5.18326388889	;
JU543	7083.84685185	4.43007481481	;
JU544	7093.41555541	5.24594258973	;
JU545	7124.8183044	5.00034404707	;
JU546	7070.23411177	5.17201694316	;
JU547	7082.80757983	4.95209189148	;
JU548	7082.80757983	4.95209189148	;
JU549	7135.91262003	7.83672462277	;
JU550	7126.57540509	4.63951347415	;
JU551	7103.55473765	4.44980625514	;
JU552	7103.55473765	4.44980625514	;
JU553	7098.2958064	4.26801400091	;
JU554	7098.2958064	4.26801400091	;
JU555	7096.4548724	4.66562473958	;
JU556	7049.5398948	4.39513595165	;
JU557	7034.50399691	7.18337124486	;
JU558	7106.17913535	4.41442240582	;
JU559	7085.72356481	3.96501175179	;
JU560	7046.3227005	3.31086886263	;
JU561	7072.12682645	4.26236747745	;
JU562	7102.78958386	3.61307866887	;
JU563	7090.01508046	4.49973505015	;
JU564	7087.18938433	5.34832410946	;
JU565	7098.72476038	5.4156941246	;
JU566	7115.49972575	5.75080680514	;
JU567	7092.17541924	5.38103015625	;
JU568	7059.60461354	2.81670381743	;
JU569	7107.72745691	3.5455090353	;
JU570	7059.38865401	5.47897526756	;
JU571	7101.15940027	5.02790336287	;
JU572	7091.49866394	5.44096539936	;
JU573	7088.04503862	4.08657196467	;
JU574	7077.84569273	3.20830837845	;
JU575	7137.75232205	3.64924244792	;
JU576	7078.38720055	4.23119856456	;
JU577	7044.6875	6.16045833333	;
JU578	7088.86985303	6.25184922546	;
JU579	7141.68329498	4.81815014486	;
JU580	7092.06714326	3.28829586254	;
JU581	7137.30525709	4.0067206195	;
JU582	7105.93472222	1.397	;
JU583	7093.71746135	5.80071180969	;
JU584	7132.60702547	4.10304447716	;
JU585	7056.55158975	4.80964740104	;
JU586	7156.96569792	4.42947302431	;
JU587	7111.5443184	4.10564103715	;
JU588	7074.68859421	3.2855036034	;
JU589	7105.80127846	4.00431346495	;
JU590	7099.61401111	3.29894052553	;
JU591	7090.06684086	4.01234071644	;
JU592	7109.50603606	3.27756911919	;
JU593	7067.67027778	2.3781437037	;
JU594	7042.65380859	5.92750379774	;
JU595	7077.90251405	4.34837360242	;
JU596	7092.48013889	3.17059166667	;
JU597	7077.46607599	2.76605033683	;
JU598	7119.18255476	5.75217617134	;
JU599	7112.75064767	6.86296084246	;
JU600	7097.55272577	4.79070530836	;
JU601	7096.25194674	4.6800377523	;
JU602	7020.80178648	7.19007396105	;
JU603	7085.6345145	3.63342136988	;
JU604	7072.88036382	3.7676781358	;
JU605	7074.26823817	2.87317176775	;
JU606	7086.69528963	2.75914443847	;
JU607	7110.45424463	3.0354606	;
JU608	7097.96242876	3.08957514162	;
JU609	7084.15289135	5.73914035349	;
JU610	7103.79068485	2.57187836721	;
JU611	7061.80502604	2.56974923611	;
JU612	7053.36437556	4.35874476426	;
JU613	7070.76041017	4.36221926239	;
JU614	7078.35416638	4.68035048275	;
JU615	7050.07111276	2.15003336273	;
JU616	7153.04181713	5.5300744213	;
JU617	7050.04691056	3.9860839953	;
JU618	7112.55194653	5.89949163826	;
JU619	7083.80078303	2.95828784208	;
JU620	7058.46895719	4.77528286465	;
JU621	7083.62224812	2.7557492834	;
JU622	7064.23613754	2.22721537106	;
JU623	7084.95294537	2.16394067762	;
JU624	7073.5796293	3.13369602884	;
JU625	7083.54162146	2.69292842601	;
JU626	7065.35927343	2.65563975004	;
JU627	7089.23070737	3.82317600783	;
JU628	7088.05675545	3.69878289221	;
JU629	7092.44718332	4.40456216385	;
JU630	7090.40503559	3.79764842485	;
JU631	7127.99877413	5.23708049766	;
JU632	7100.26590278	4.31984622222	;
JU633	7065.53675734	3.67914372362	;
JU634	7097.47660494	4.94558121605	;
JU635	7106.80555556	4.09444444444	;
JU636	7082.97722032	3.95621255373	;
JU637	7067.29266881	2.23048902671	;
JU638	7054.64192708	4.86762413194	;
JU639	7099.01935149	4.09301094547	;
JU640	7054.78110113	5.05366236534	;
JU641	7052.7378035	3.78317911523	;
JU642	7094.97411176	3.75516924959	;
JU643	7069.09549859	3.76391950366	;
JU644	7093.02227315	3.82327282407	;
JU645	7133.90449846	3.3218008179	;
JU646	7053.50263052	4.21476300288	;
JU647	7156.57875386	5.31667295525	;
JU648	7080.99095872	1.85491083333	;
JU649	7041.31784818	3.94891852682	;
JU650	7112.87546296	8.2622941358	;
JU651	7025.84949074	3.40769064815	;
JU652	7050.1029922	1.95048712522	;
JU653	7120.25894569	3.11822210648	;
JU654	7085.18487494	3.65444729552	;
JU655	7075.72558594	4.199284344	;
JU656	7075.4222608	3.5845158179	;
JU657	7045.17708333	0.884873697917	;
JU658	7120.38441887	2.06062753627	;
JU659	7086.87530864	1.6263882716	;
JU660	7099.01617074	3.93403724066	;
JU661	7065.86810777	1.97231876511	;
JU662	7067.03733025	4.20522154241	;
JU663	7051.77562043	4.7525800422	;
JU664	7074.91853009	4.10469745949	;
JU665	7118.5029116	4.84209174865	;
JU666	7107.79484225	3.98900765432	;
JU667	7097.3917381	3.00761284228	;
JU668	7075.55871271	1.50323368699	;
JU669	7105.97025078	3.7119999626	;
JU670	7043.54923611	3.94881888889	;
JU671	7069.82947483	2.55294001157	;
JU672	7088.21950231	3.26245754115	;
JU673	7063.69161757	12.8801168407	;
JU674	7101.04979681	4.48654023156	;
JU675	7078.20207712	3.45664615189	;
JU676	7074.25178398	3.32736570522	;
JU677	7079.74178283	3.3203765179	;
JU678	7088.16053894	3.38216514269	;
JU679	7088.24037698	3.56215415669	;
JU680	7123.36483677	2.33836948367	;
JU681	7075.85244631	3.67609644003	;
JU682	7084.25	7.05525	;
JU683	7136.61730967	5.59880272634	;
JU684	7068.57644809	4.44809897739	;
JU685	7066.38198741	5.56462392727	;
JU686	7067.80555556	3.39928703704	;
JU687	7068.34757437	3.40417585926	;
JU688	7162.57451989	4.35532512003	;
JU689	7098.8159537	3.47050648148	;
JU691	7070.1475482	2.88765005856	;
JU692	7077.20625429	4.87413619113	;
JU693	7094.50734896	3.2622140625	;
JU694	7065.35902778	4.70898333333	;
JU695	7088.86330141	4.52620680691	;
JU696	7089.81897715	4.26846718842	;
JU697	7091.36483218	4.12135803819	;
JU698	7119.56323206	4.34833653549	;
JU699	7079.06450891	3.68050332219	;
JU700	7097.6553875	2.81851069444	;
JU701	7090.00327986	5.17459597373	;
JU702	7115.82878434	2.14293777778	;
JU703	7056.74131944	4.29436111111	;
JU704	7083.3049327	2.4213001323	;
JU705	7067.08675416	2.51217411569	;
JU706	7079.20685627	3.96368138009	;
JU707	7143.53267189	5.26442927823	;
JU708	7070.28417969	1.29719205729	;
JU709	7087.015625	1.58413541667	;
JU710	7084.81748905	3.02389049613	;
JU711	7074.33047092	2.49297096207	;
JU712	7206.45102189	1.01156286748	;
JU713	7078.17452038	3.31795490744	;
JU714	7118.82566918	2.41629129464	;
JU715	7062.78897487	2.94906525132	;
JU716	7055.59617945	3.02124139991	;
JU717	7135.68992029	5.04498360059	;
JU718	7077.92852967	3.18752297931	;
JU719	7060.8664093	3.05322824869	;
JU720	7077.75075482	2.68270158021	;
JU721	7104.55961281	4.2746117976	;
JU722	7105.68209877	3.86592283951	;
JU723	7073.24714897	3.77572820997	;
JU724	7075.52562201	51.4788572369	;
JU725	7132.57266976	5.65438168008	;
JU726	7085.27918092	4.8357283083	;
JU727	7074.89591473	3.56449556821	;
JU728	7106.83048381	3.86503289705	;
JU729	7071.06833333	2.14068	;
JU730	7045.68055556	1.86508333333	;
JU731	7047.59764339	3.5376269183	;
JU732	7052.8893533	2.69531272549	;
JU733	7095.68597264	4.54602963831	;
JU734	7044.88431803	1.42576690538	;
JU735	7089.50267873	3.39180487658	;
JU736	7073.61544027	4.21513168996	;
JU737	7095.23345831	3.37327536173	;
JU738	7110.93867188	4.31650104167	;
JU739	7100.27106264	4.38416097922	;
JU740	7048.17453704	6.98821527778	;
JU741	7088.4090173	4.52830846098	;
JU742	7085.94699074	5.76719212963	;
JU743	7105.70552591	6.36034336125	;
JU744	7061.11005015	5.0540822608	;
JU745	7061.59898559	2.5716006866	;
JU746	7166.70912089	5.90453394221	;
JU747	7056.96985782	3.37682099563	;
JU748	7056.33428789	2.79102681242	;
JU749	7048.31141986	2.70357768155	;
JU750	7062.0085669	3.91334688574	;
JU751	7056.33428789	2.79102681242	;
JU752	7061.59898559	2.5716006866	;
JU753	7077.63077987	4.96673359611	;
JU754	7051.12613315	3.60632348847	;
JU755	7082.62996383	6.36255613137	;
JU756	7064.39848049	2.05157139881	;
JU757	7106.09666465	4.28801418835	;
JU758	7078.025247	3.97963826468	;
JU759	7105.84369463	3.37102741698	;
JU760	7121.59574771	5.07280758877	;
JU761	7116.58841275	4.29530173888	;
JU762	7096.78298069	5.4156856342	;
JU763	7069.60055227	4.28142373328	;
JU764	7099.00818866	3.47680116384	;
JU765	7063.55019622	2.93624842266	;
JU766	7110.75	3.57059259259	;
JU767	7047.59764339	3.5376269183	;
JU768	7096.84973958	4.03824994213	;
JU769	7092.60789156	4.2191696897	;
JU770	7103.51834105	2.12498688272	;
JU771	7047.54983161	4.49856398757	;
JU772	7076.09787845	1.85056318453	;
JU773	7096.37335145	3.80982686828	;
JU774	7081.60190054	3.71413400156	;
JU775	7109.10855456	2.61511844436	;
JU776	7054.74563252	2.64534897762	;
JU777	7052.75994575	2.42266037326	;
JU778	7100.29203543	3.57698569213	;
JU779	7126.78697457	3.59346108644	;
JU780	7084.86551273	3.30674803241	;
JU781	7077.75237792	4.75834155592	;
JU782	7061.74995055	3.97192090944	;
JU783	7052.05029741	4.12696362928	;
JU784	7065.7045255	2.82406021218	;
JU785	7068.7756832	4.13882419826	;
JU786	7124.78149091	3.99076211337	;
JU787	7123.87253915	3.34418515408	;
JU788	7109.99289576	3.68880015625	;
JU789	7110.02337798	3.67814923452	;
JU790	7083.03209443	3.87716760417	;
JU791	7068.04363831	4.12027510052	;
JU792	7126.03854012	2.4920437963	;
JU793	7094.59681499	4.1758961334	;
JU794	7117.72130732	2.54580141093	;
JU795	7144.21397569	1.73479783951	;
JU796	7078.45112336	3.76020583908	;
JU797	7075.46079543	2.77934580391	;
JU798	7066.72239733	4.17991167819	;
JU799	7098.28942184	4.58617825856	;
JU800	7100.07792476	2.69060627572	;
JU801	7095.41153549	5.58766280864	;
JU802	7074.67574615	4.55486153891	;
JU803	7081.7507944	2.64165093529	;
JU804	7138.87457341	1.70890077381	;
JU805	7123.36483677	2.33836948367	;
JU806	7086.96205222	2.54473999038	;
JU807	7082.93724753	2.52626388137	;
JU808	7043.91994358	3.47402534722	;
JU809	7073.85926107	4.27882057292	;
JU810	7106.38473073	3.27625778417	;
JU811	7135.51963976	7.00502379919	;
JU812	7045.96594238	3.97914794922	;
JU813	7048.4481739	4.58476948448	;
JU814	7053.56730688	1.88326647196	;
JU815	7073.02317309	5.62554448134	;
JU816	7081.88860735	6.2720343347	;
JU817	7065.95713976	1.97959852431	;
JU818	7025.85302734	3.83372450087	;
JU819	7053.78772006	3.95324706986	;
JU820	7053.78369985	3.83145138889	;
JU821	7098.6283151	3.17357447917	;
JU822	7100.6808443	4.38394829743	;
JU823	7072.59861111	3.82851388889	;
JU824	7076.53528742	4.05260106096	;
JU825	7101.66055482	3.69243783796	;
JU826	7070.58397102	4.89244406951	;
JU827	7087.51780437	5.28435428395	;
JU828	7089.0613053	3.01954112654	;
JU829	7057.45222319	5.54841449653	;
JU830	7019.96627778	2.65389922222	;
JU831	7072.03924894	2.49863491539	;
JU832	7092.9375733	2.73268069444	;
JU833	7019.35534697	2.56480148148	;
JU834	7041.06178205	3.93525146574	;
JU835	7094.56776042	3.07071201775	;
JU836	7071.26241641	2.27941748543	;
JU837	7107.59293338	2.08880674726	;
JU838	7084.58449653	4.45590910387	;
JU839	7085.72096076	3.49969764051	;
JU840	7106.82808642	3.96722728909	;
JU841	7103.27705761	5.07970745027	;
JU842	7081.91238064	3.31306553819	;
JU843	7052.3467517	4.15538907099	;
JU844	7082.70149354	1.94276890697	;
JU845	7090.4717572	3.30280146091	;
JU846	7086.74891493	4.10606122917	;