[TITLE]
Generated synthetic network;

[JUNCTIONS]
;ID	Elev	Demand	Pattern
JU1	7068.25083108	4.06288856096	;
JU3	7042.50517156	5.34634040697	;
JU4	7121.84375	7.37975	;
JU5	7070.8359375	4.29107986111	;
JU6	7094.57758763	3.90059623016	;
JU7	7068.88912037	3.14093009259	;
JU8	7074.96064066	2.58117668548	;
JU9	7073.11258907	2.90404468871	;
JU10	7112.26650617	3.61600422222	;
JU11	7053.78412037	4.46522666667	;
JU12	7119.58410208	1.44070897062	;
JU14	7150.29634728	2.02797877177	;
JU15	7086.85225328	5.30240440625	;
JU16	7064.30385251	3.72004639991	;
JU17	7115.03313755	4.39403904378	;
JU18	7093.61462004	4.85175140933	;
JU19	7076.24774972	4.57805558953	;
JU20	7056.53119069	3.77524895663	;
JU22	7063.01703531	3.04486832413	;
JU23	7105.73100573	6.5634080886	;
JU24	7065.27680298	3.95972008745	;
JU25	7078.33779889	4.52060783461	;
JU26	7069.4689847	3.89700339185	;
JU27	7089.73558044	4.3563125542	;
JU28	7078.75442684	4.685733195	;
JU29	7085.68425336	4.87625349323	;
JU30	7090.87356357	4.97891022794	;
JU31	7081.5716524	4.73317708846	;
JU32	7074.02181782	4.88036779487	;
JU33	7051.72426167	5.02617277889	;
JU34	7065.0105472	4.94468326569	;
JU35	7058.73065113	4.51560561116	;
JU36	7041.10275579	5.37897397042	;
JU37	7095.77685725	3.90717312615	;
JU38	7070.60390726	5.15131511192	;
JU39	7060.35938447	4.82900989012	;
JU40	7099.0589488	3.71527202548	;
JU41	7123.49277824	5.6861692323	;
JU42	7074.12418741	4.99056622188	;
JU43	7086.81654312	5.18240250076	;
JU44	7074.02595624	2.81783971523	;
JU45	7104.50673673	5.50320486731	;
JU46	7094.67145007	4.90298759115	;
JU47	7104.9166332	5.4919518895	;
JU48	7081.21436471	3.42510540123	;
JU49	7078.21089249	4.18329850823	;
JU50	7081.90533217	3.80562921403	;
JU51	7069.77155671	3.30320891204	;
JU52	7057.93903553	3.37813284632	;
JU53	7091.23737128	5.67621359758	;
JU54	7095.37009549	3.1143515625	;
JU55	7091.62545062	4.42190577224	;
JU56	7084.6225	6.57974	;
JU57	7071.84049237	4.43698758116	;
JU58	7078.4160345	4.31483605805	;
JU59	7091.61042134	2.6302753967	;
JU60	7081.37702381	3.77560994649	;
JU61	7084.51817998	3.64633619078	;
JU62	7063.00360522	4.2748936434	;
JU63	7067.33325081	6.31557078618	;
JU64	7152.15125479	1.79271795111	;
JU65	7054.91347737	3.76861662551	;
JU66	7122.42707092	3.30517511989	;
JU67	7092.54166667	0.2595	;
JU68	7126.74768519	5.57947685185	;
JU69	7055.99991009	3.88846599408	;
JU70	7146.175	6.98709505952	;
JU71	7067.32559471	2.300776889	;
JU72	7054.85883424	5.4101267739	;
JU73	7032.47055556	7.05115777778	;
JU74	7090.34962963	5.15768148148	;
JU75	7113.11361111	5.59683888889	;
JU76	7066.31911716	3.01726821759	;
JU77	7049.74341895	5.72656454486	;
JU78	7094.49333333	5.19853333333	;
JU79	7142.02384088	7.10028266118	;
JU80	7103.95372878	5.53494147762	;
JU81	7090.68368806	2.47752014003	;
JU82	7073.77742257	3.91477389324	;
JU83	7070.38221193	5.48705284294	;
JU84	7079.01308936	2.35309800394	;
JU86	7050.40347938	5.65865981919	;
JU87	7046.18788741	5.42059102366	;
JU88	7046.03299147	5.98383740387	;
JU89	7081.02037115	4.31425567136	;
JU90	7159.75664429	6.19040154321	;
JU91	7110.47251543	5.75422990741	;
JU92	7087.86490921	2.70944585391	;
JU93	7066.36111111	6.07542592593	;
JU94	7053.35996622	3.84752419324	;
JU95	7078.53611111	6.23531111111	;
JU96	7062.1186214	3.65498880658	;
JU97	7085.11571243	4.67248122546	;
JU98	7147.30631722	4.64359077943	;
JU99	7111.36017768	3.95350102095	;
JU100	7066.98410976	4.72275298997	;
JU101	7071.75510648	4.23578490741	;
JU102	7102.35	6.20748333333	;
JU103	7108.13472222	6.98550694444	;
JU104	7078.3117284	5.99660493827	;
JU105	7079.68301405	5.23830944665	;
JU106	7065.75	1.457975	;
JU107	7079.67569444	2.50108611111	;
JU108	7111.04906466	2.8426218571	;
JU109	7084.55659722	3.9910875	;
JU110	7076.66181658	2.68085047521	;
JU111	7117.06975907	3.28563729772	;
JU112	7083.66970788	3.48648691178	;
JU113	7071.84619933	6.2110403298	;
JU114	7057.14074074	5.51445432099	;
JU115	7062.12511703	3.90687734053	;
JU116	7055.55901386	3.93491294602	;
JU117	7068.32207647	1.04363028121	;
JU118	7090.94881221	4.45439590085	;
JU119	7111.8648714	2.81133333333	;
JU120	7074.16161667	4.04656986667	;
JU121	7055.0905101	4.09125402796	;
JU122	7067.45888273	3.81818801694	;
JU123	7060.51569444	3.83448638889	;
JU124	7122.58839952	2.00774153187	;
JU125	7080.64482247	4.2005958025	;
JU126	7070.8365162	5.59443233989	;
JU127	7133.98008095	3.74973583084	;
JU128	7039.85464733	5.27457088715	;
JU129	7100.77284906	5.15934588409	;
JU130	7058.42475694	5.80555101852	;
JU131	7084.32061431	2.454523119	;
JU132	7083.71243019	4.7472015726	;
JU133	7075.86658259	4.05931596515	;
JU134	7074.24817593	4.7036657037	;
JU135	7063.66027778	4.95298962963	;
JU136	7090.18624074	2.94194018519	;
JU137	7081.57796296	3.51994351852	;
JU138	7074.32923709	4.34424589711	;
JU139	7133.89419118	1.43259437037	;
JU140	7078.45317329	3.80939904515	;
JU141	7073.83048268	3.04800362662	;
JU142	7097.4089477	4.8936041752	;
JU143	7057.03579726	5.32618626133	;
JU144	7079.63362697	6.31890874421	;
JU145	7067.67981852	4.27108683675	;
JU146	7071.3125	4.09950520833	;
JU147	7076.28114583	3.99401927083	;
JU148	7061.73379004	5.01643019567	;
JU149	7046.41350873	5.20257337466	;
JU150	7071.20492278	4.17428199753	;
JU151	7088.40291818	4.85188042237	;
JU152	7071.07669271	3.22207204861	;
JU153	7143.60609053	7.10035415638	;
JU154	7038.7003442	5.93951486343	;
JU155	7035.61606713	5.8308245	;
JU156	7137.73518081	5.26529469522	;
JU157	7082.63596825	3.78762468401	;
JU158	7060.49495701	3.36232602146	;
JU159	7053.48580247	4.60666790123	;
JU160	7083.00255478	3.93636240123	;
JU161	7091.79445755	5.47420219456	;
JU162	7070.11295049	5.34267729201	;
JU163	7131.60055333	6.0709397654	;
JU164	7112.50819486	4.9167378862	;
JU165	7081.04147026	3.60775335825	;
JU166	7066.58784716	3.35472690303	;
JU167	7077.44229244	4.03257022349	;
JU168	7098.31559848	6.07566075424	;
JU169	7077.50921956	4.29280204781	;
JU170	7082.45833333	3.95868518519	;
JU171	7135.06869032	2.19565166571	;
JU172	7099.97789076	5.16698888219	;
JU173	7052.81481481	3.35662962963	;
JU174	7078.62011863	6.43895994261	;
JU175	7119.0220668	2.53922093254	;
JU176	7107.98693783	2.40777281746	;
JU177	7071.52698378	4.16846525022	;
JU178	7019.57273052	4.2520258582	;
JU179	7110.48931246	1.4276764954	;
JU180	7081.76289476	5.5835301918	;
JU181	7076.41089506	2.74750679012	;
JU182	7078.94032242	2.20148587467	;
JU183	7105.44791667	6.78039583333	;
JU184	7112.11646701	7.4499984375	;
JU185	7072.98587551	3.32235672788	;
JU186	7078.21097222	3.66102479938	;
JU187	7099.07466538	5.67448564999	;
JU188	7110.90295621	5.61882300444	;
JU189	7094.91090812	3.77700325197	;
JU190	7066.88271385	3.18752051573	;
JU191	7061.63959934	3.43152985901	;
JU192	7078.53456276	3.47631237654	;
JU193	7059.12222222	2.99086140046	;
JU194	7060.7818327	3.30351021688	;
JU195	7066.88271385	3.18752051573	;
JU196	7082.83280701	5.05950958591	;
JU197	7044.19975807	5.12376079765	;
JU198	7070.57060185	5.37041126543	;
JU199	7133.75	6.25110416667	;
JU200	7150.50841942	3.30450909636	;
JU201	7070.07289986	1.73889701509	;
JU202	7076.0069348	3.56084652778	;
JU203	7094.36861368	2.58611231996	;
JU204	7126.10741701	4.26808967785	;
JU205	7070.13653999	5.5134064181	;
JU206	7068.21954916	4.51981070877	;
JU207	7076.75738369	4.39040012948	;
JU208	7071.88895685	4.47586627683	;
JU209	7074.0876201	5.03688593842	;
JU210	7077.96082292	4.66766597917	;
JU211	7096.76387244	3.03275187734	;
JU212	7081.20371714	3.44648827304	;
JU213	7072.2934987	3.67049583333	;
JU214	7048.78480231	3.48456383584	;
JU215	7091.73166788	3.64114845624	;
JU216	7047.58067294	4.48546767841	;
JU217	7096.8006788	4.33040990312	;
JU218	7100.80060719	5.35177521845	;
JU219	7075.75258994	3.27454405369	;
JU220	7041.99413146	4.20560064032	;
JU221	7100.86371934	4.40426349101	;
JU222	7165.21016107	5.10477992112	;
JU223	7125.58594341	4.66861269205	;
JU224	7099.8246658	3.6610859375	;
JU225	7062.20995152	4.37489650647	;
JU226	7126.89583333	7.73116666667	;
JU227	7098.2287037	1.00906412037	;
JU228	7045.03196245	5.36932536626	;
JU229	7108.18458356	3.71814361754	;
JU230	7086.06186343	2.94128138021	;
JU231	7134.96306584	6.42423696159	;
JU232	7060.51279196	3.64121902566	;
JU233	7052.14259259	5.30165555556	;
JU234	7088.80356771	3.74862471065	;
JU235	7079.0722921	6.04810912151	;
JU236	7085.6356604	4.34380809032	;
JU237	7088.59183356	4.31174290976	;
JU238	7097.9162037	1.51181412037	;
JU239	7068.20576279	3.32463183238	;
JU240	7088.14385414	5.17106481455	;
JU241	7092.42020625	3.88548378472	;
JU242	7200.07408693	0.436092335391	;
JU243	7093.15453802	5.50675729048	;
JU244	7136.70459722	3.71048010185	;
JU245	7050.35490162	4.77980206276	;
JU246	7088.97969715	4.12125343364	;
JU247	7109.11046187	5.2646895445	;
JU248	7079.57360315	2.86154010277	;
JU249	7059.22278852	3.49321325549	;
JU250	7067.68126475	2.4496098775	;
JU251	7075.6035826	3.23292228652	;
JU252	7114.06928176	5.29682878092	;
JU253	7073.59874815	3.53052728889	;
JU254	7080.69505208	3.14089409722	;
JU255	7094.00897895	4.07685514323	;
JU256	7076.41729343	3.71425175653	;
JU257	7103.21828702	6.24671804137	;
JU258	7075.10977042	3.96590683785	;
JU259	7055.24954399	4.2872144786	;
JU260	7043.67076694	5.18905561914	;
JU261	7075.10977042	3.96590683785	;
JU262	7109.716	2.602315	;
JU263	7028.36650781	4.87774118924	;
JU264	7055.3502057	3.95619319743	;
JU265	7081.97638889	4.84542222222	;
JU266	7081.28448808	4.15619731627	;
JU267	7091.29166667	4.66388888889	;
JU268	7086.66195184	4.04638988555	;
JU269	7087.40455247	4.58384799383	;
JU270	7089.58957644	4.56828926684	;
JU271	7054.3807497	5.44372409693	;
JU272	7103.43732804	4.23847664651	;
JU273	7087.35615638	3.75134345679	;
JU274	7069.01933718	4.404424109	;
JU275	7100.84715906	5.1353050066	;
JU276	7077.18483796	6.17927378472	;
JU277	7091.6240188	4.3397982961	;
JU278	7077.99038805	4.28251849826	;
JU279	7105.49348206	3.1179330276	;
JU280	7058.80177344	4.44049811203	;
JU281	7115.61641473	3.79089776698	;
JU282	7070.8574692	4.9052311657	;
JU283	7141.63890768	5.88932676664	;
JU284	7146.19907407	7.45355555556	;
JU285	7085.65193538	4.24122492427	;
JU286	7085.60973927	2.8172136353	;
JU287	7051.64115741	3.71233333333	;
JU288	7077.39166667	5.54799320988	;
JU289	7068.73727079	3.58673736699	;
JU290	7084.75485738	4.10419527859	;
JU291	7077.42320475	5.33390883427	;
JU292	7068.31295326	5.04681217672	;
JU293	7149.86333333	6.95179472421	;
JU294	7088.74953712	4.4363870523	;
JU295	7082.77989416	4.49243571694	;
JU296	7069.32977747	3.38148956389	;
JU297	7148.88215211	3.60430025096	;
JU298	7085.35416667	5.77620138889	;
JU299	7086.93638889	4.25587319444	;
JU300	7032.49580748	6.28306287654	;
JU301	7100.94726312	5.79352220745	;
JU302	7071.82201517	3.55890327109	;
JU303	7089.39381065	2.21833976973	;
JU304	7154.93601659	5.71509203318	;
JU305	7088.137	6.110248	;
JU306	7100.35604938	1.66646604938	;
JU307	7095.92349474	1.70289944126	;
JU308	7098.69765914	2.91394883295	;
JU309	7111.6272571	4.37622980109	;
JU310	7104.22541574	5.09529620189	;
JU311	7146.14385082	4.48494822757	;
JU312	7088.90854722	4.91259041627	;
JU313	7106.27505162	4.64988650924	;
JU314	7165.24031289	3.501884375	;
JU315	7114.18082665	4.50536386454	;
JU316	7089.03886048	3.74423789086	;
JU317	7082.22097874	3.33429099406	;
JU318	7100.04866255	2.77462742627	;
JU319	7068.16991519	3.09819146568	;
JU320	7066.07269905	3.99300509594	;
JU321	7111.49184506	4.60520089115	;
JU322	7078.69880642	4.95968396026	;
JU323	7066.24545319	2.98193954853	;
JU324	7062.85026373	2.66972302569	;
JU325	7063.12647904	3.69176319489	;
JU326	7100.23023974	3.83451614473	;
JU327	7107.91516201	2.90338419685	;
JU328	7107.91516201	2.90338419685	;
JU329	7106.01078025	3.6150128735	;
JU330	7077.0563642	3.00094931173	;
JU331	7089.19392554	2.26734804784	;
JU332	7089.85524546	2.98266963621	;
JU333	7089.40618474	3.19389573708	;
JU334	7091.54469686	3.96195164009	;
JU335	7072.30831334	3.17206194957	;
JU336	7082.022609	3.47536704735	;
JU337	7106.96630816	2.87270892161	;
JU338	7141.1287037	3.76248032407	;
JU339	7042.58959734	5.35650014974	;
JU340	7123.39377912	2.52977545834	;
JU341	7124.95749846	4.60669301698	;
JU342	7056.03452361	7.23550913194	;
JU343	7150.84359219	3.68901971947	;
JU344	7092.54366839	4.35140878252	;
JU345	7086.81654312	5.18240250076	;
JU346	7082.08885031	4.84851149691	;
JU347	7075.04031356	4.49664176948	;
JU348	7086.2391787	5.40666757963	;
JU349	7115.76044239	3.99988576175	;
JU350	7082.22097874	3.33429099406	;
JU351	7051.89766654	4.93447247092	;
JU352	7105.11619219	3.71757547853	;
JU353	7139.70929398	3.06071148148	;
JU354	7051.69725116	3.625831268	;
JU355	7097.12982856	3.34423621238	;
JU356	7089.6242284	1.34367592593	;
JU357	7091.10866353	4.57883830442	;
JU358	7129.61888557	5.11280153633	;
JU359	7088.66732389	3.91872328646	;
JU360	7109.58650823	3.7933241358	;
JU361	7098.32724944	4.93135895837	;
JU362	7121.93621399	2.20720781893	;
JU363	7117.99915173	5.0559550562	;
JU364	7131.84522547	6.0986839363	;
JU365	7089.81283997	3.87270194331	;
JU366	7100.47670056	3.72270447512	;
JU367	7062.53723494	2.822468565	;
JU368	7072.90419184	4.47899025521	;
JU369	7066.84541645	3.24301742055	;
JU370	7086.54228003	4.10991901747	;
JU371	7123.08380401	5.84476236111	;
JU372	7081.31445267	3.10280634568	;
JU373	7095.08333333	3.12483333333	;
JU374	7078.04514853	3.37167658179	;
JU375	7078.91353443	3.80408839699	;
JU376	7096.65522014	2.80214639034	;
JU377	7095.82862076	5.06176774691	;
JU378	7092.18717593	3.69528377315	;
JU379	7116.35604532	4.32926669682	;
JU380	7087.46047016	3.78002230453	;
JU381	7121.09814815	3.9676908642	;
JU382	7104.52273367	3.76069764549	;
JU383	7119.14145062	4.00900372428	;
JU384	7101.00323206	3.24189482896	;
JU385	7118.65436539	4.599873753	;
JU386	7090.80447531	5.02631203704	;
JU387	7107.14374457	6.28301148365	;
JU388	7033.26203704	4.09286805556	;
JU389	7064.95766975	3.9204767284	;
JU390	7055.27796364	3.24239867585	;
JU391	7089.67623322	4.32802988028	;
JU392	7074.35084201	2.9438103588	;
JU393	7111.26221528	3.09208020833	;
JU394	7112.11474603	2.70252805774	;
JU395	7075.308628	5.27836925208	;
JU396	7116.82184444	1.17318284444	;
JU397	7083.88824041	4.36828990381	;
JU398	7086.28467978	4.10648313272	;
JU399	7088.83742471	3.52423684986	;
JU400	7089.29925812	4.21450522036	;
JU401	7054.72639392	1.82365272038	;
JU402	7094.15917767	4.71111111712	;
JU403	7081.51771097	3.17945357604	;
JU404	7066.48012721	3.28613135431	;
JU405	7069.66392593	4.94041866667	;
JU406	7104.24151235	2.86038580247	;
JU407	7111.76494667	2.53700646546	;
JU408	7067.50280778	5.04532951818	;
JU409	7082.18465294	3.6449372751	;
JU410	7066.63310185	4.1454837963	;
JU411	7091.04173755	3.48112943889	;
JU412	7086.60512625	4.96473855936	;
JU413	7128.50092593	5.03972222222	;
JU414	7143.14905021	5.05275246006	;
JU415	7103.23158985	1.30867337486	;
JU416	7065.74166667	2.58911083333	;
JU417	7093.42558256	3.42082864198	;
JU418	7049.29614573	4.91138262764	;
JU419	7057.22530864	4.03990123457	;
JU420	7050.11783488	5.94897559414	;
JU421	7078.32788432	5.67293328439	;
JU422	7059.8010582	5.60215687831	;
JU423	7091.12592593	3.61943703704	;
JU424	7066.32768293	2.73663542953	;
JU425	7145.68155747	3.34980932403	;
JU426	7075.27880658	3.43689557613	;
JU427	7114.64583333	8.14803703704	;
JU428	7098.59435391	3.17819742284	;
JU429	7094.43338477	3.84451221708	;
JU430	7097.02524122	5.30720764411	;
JU431	7089.07312114	5.41087706043	;
JU432	7099.34989818	3.23644770267	;
JU433	7087.33788474	4.47275146331	;
JU434	7038.90322627	2.77640676312	;
JU435	7089.942979	2.9433088965	;
JU436	7098.51404784	3.15476177469	;
JU437	7086.47253766	2.23513281605	;
JU438	7086.47253766	2.23513281605	;
JU439	7081.10822083	4.82522745028	;
JU440	7092.78420403	3.97228646576	;
JU441	7097.85351308	4.78072332449	;
JU442	7098.66458274	4.87397418746	;
JU443	7089.54366903	4.73417247676	;
JU444	7107.25988806	5.15536475678	;
JU445	7087.65669995	3.24309082352	;
JU446	7087.65669995	3.24309082352	;
JU447	7061.60253909	5.54133403292	;
JU448	7084.64426012	3.59085527277	;
JU449	7089.57007602	4.95337194216	;
JU450	7151.53140603	6.76664408092	;
JU451	7055.79397562	3.13780023785	;
JU452	7087.6837963	5.02444151235	;
JU453	7150.40621856	6.6062870599	;
JU454	7068.16388166	5.07504492187	;
JU455	7035.08915476	2.11086370539	;
JU456	7072.46071221	3.46471639476	;
JU457	7097.09663466	3.64534254467	;
JU458	7074.00849337	5.78075171468	;
JU459	7094.5194411	4.62860077292	;
JU460	7130.21701389	6.65725462963	;
JU461	7082.36123672	4.37347421555	;
JU462	7084.20058608	7.44054406986	;
JU463	7069.51007686	4.31881252025	;
JU464	7024.1612963	2.35402074074	;
JU465	7022.68769877	3.96232500247	;
JU466	7036.57974441	3.22345864969	;
JU467	7055.58289806	2.2991136782	;
JU468	7034.09874558	2.85691965267	;
JU469	7078.53456276	3.47631237654	;
JU470	7082.15409722	4.71048809414	;
JU471	7072.98587551	3.32235672788	;
JU473	7063.49326946	3.08618229483	;
JU474	7022.68769877	3.96232500247	;
JU475	7079.88733505	4.59527811886	;
JU476	7066.99723242	1.7151983175	;
JU477	7089.52796708	2.45469409877	;
JU478	7079.24709176	4.17322198833	;
JU479	6986.51527778	4.55795972222	;
JU480	7097.10135802	4.63248888889	;
JU481	7112.98152606	3.95860987654	;
JU482	7062.31155139	4.09909468519	;
JU483	7126.99842222	0.888241422222	;
JU484	7058.11979167	2.73332638889	;
JU485	7074.90566606	4.78041802614	;
JU486	7066.956875	6.13725	;
JU487	7130.20447531	5.47111525849	;
JU488	7069.70049296	4.29158226686	;
JU489	7091.9764418	4.48741721644	;
JU490	7061.86365679	4.2050798267	;
JU491	7079.72922536	6.03847596412	;
JU492	7073.05277286	2.93018129637	;
JU493	7054.35962514	3.96701998939	;
JU494	7061.70970315	4.09296346607	;
JU495	7110.4483232	4.31415745241	;
JU496	7086.31398571	3.58219385441	;
JU497	7091.73184535	4.53936787296	;
JU498	7079.03927752	5.44898391701	;
JU499	7037.78488363	1.5903172064	;
JU500	7128.55411523	5.16052207701	;
JU501	7040.19885012	3.58666879221	;
JU502	7086.81324031	3.99700112579	;
JU503	7074.18725688	4.50087763558	;
JU504	7077.46335291	5.73030166833	;
JU505	7086.54228003	4.10991901747	;
JU506	7086.44343895	3.81875657954	;
JU507	7093.51960716	2.70673708437	;
JU508	7058.51432574	4.13099593063	;
JU509	7094.03366102	3.21866965981	;
JU510	7087.25419255	2.13357197274	;
JU511	7095.61808861	3.16248507426	;
JU512	7080.93430346	3.77036096788	;
JU513	7077.41788194	5.58735736111	;
JU514	7061.92540509	4.23372041667	;
JU515	7074.7410526	3.75724333205	;
JU516	7113.46575231	4.18786828704	;
JU517	7111.62719835	4.67105256076	;
JU518	7091.44513889	5.67566944444	;
JU519	7069.39209319	3.79730806327	;
JU520	7079.0722921	6.04810912151	;
JU521	7103.2132458	4.90193161169	;
JU522	7090.72008877	4.19445575097	;
JU523	7091.69521068	4.03029348001	;
JU524	7119.73688272	1.87422222222	;
JU525	7132.44592014	3.93845659722	;
JU526	7086.28066949	4.23636901042	;
JU527	7065.66333912	3.51361053241	;
JU528	7127.33222867	4.70448806155	;
JU529	7087.87728136	4.31357669271	;
JU530	7071.8286096	3.99276793087	;
JU531	7076.02211854	3.52481628086	;
JU532	7079.53326586	4.09249886695	;
JU533	7069.87188103	3.09140814043	;
JU534	7079.53326586	4.09249886695	;
JU535	7087.41003321	3.65886724941	;
JU536	7082.11378158	3.31878168263	;
JU537	7107.14079861	5.53015763889	;
JU538	7066.43518519	0.915444444444	;
JU539	7077.94435401	4.92762950704	;
JU540	7097.91171124	3.62819142453	;
JU541	7095.70089449	3.67413093781	;
JU542	7138.60647031	5.87893255633	;
JU543	7071.18363148	1.43731770177	;
JU544	7066.81192184	3.84545850681	;
JU545	7053.9646826	4.1413089109	;
JU546	7068.16030901	3.66176793469	;
JU547	7049.86944696	4.37014230939	;
JU548	7106.71994746	4.86834656252	;
JU549	7102.71857407	5.34519148148	;
JU550	7047.84906756	3.88176763859	;
JU551	7081.42851603	3.53616567162	;
JU552	7087.68405832	3.20397182999	;
JU553	7095.98166952	5.22042179842	;
JU554	7080.55328525	3.33991886618	;
JU555	7095.66465495	3.15035964914	;
JU556	7109.16807042	4.22062506714	;
JU557	7082.50216533	3.43975676379	;
JU558	7176.53142754	6.65203367134	;
JU559	7105.86863983	5.59199580089	;
JU560	7133.31826788	4.61067272814	;
JU561	7118.9187375	4.88811269242	;
JU562	7046.69340776	3.3083579194	;
JU563	7110.76332151	5.32932247312	;
JU564	7105.73180441	3.99953737426	;
JU565	7123.51679153	4.50986374838	;
JU566	7093.34940844	4.02620859053	;
JU567	7067.77299855	5.34757660937	;
JU568	7062.72006411	3.96976978839	;
JU569	7110.76332151	5.32932247312	;
JU570	7091.15682002	5.31005153356	;
JU571	7057.52314815	3.66409027778	;
JU572	7077.26131366	2.63047960648	;
JU573	7120.68305864	5.98672000245	;
JU574	7107.53380454	3.96837576505	;
JU575	7100.88684259	2.5163145	;
JU576	7151.49313946	6.76341906356	;
JU577	7106.55555556	4.87108333333	;
JU578	7060.76091878	4.20513395021	;
JU579	7126.4545073	3.91060305234	;
JU580	7092.41328008	4.76016643398	;
JU581	7097.3532802	4.58851309275	;
JU582	7047.7437963	5.50205213992	;
JU583	7039.09929139	2.86974097507	;
JU584	7098.61360361	3.44255944294	;
JU585	7084.61534729	3.9629149334	;
JU586	7063.796875	5.08132291667	;
JU587	7062.08920893	4.05621342408	;
JU588	7058.67768519	5.98929291667	;
JU589	7148.77700617	2.82544135802	;
JU590	7091.74323239	3.06520475175	;
JU591	7077.98217373	3.62584027869	;
JU592	7081.06491261	3.85686788269	;
JU593	7107.62593321	4.47337400566	;
JU594	7091.49279361	3.49092102597	;
JU595	7096.48277698	4.70469280252	;
JU596	7088.62723519	4.265612501	;
JU597	7111.38841134	5.59965818096	;
JU598	7097.43358228	3.34774403532	;
JU599	7134.24978092	3.6096415225	;
JU600	7079.05327236	3.00871125056	;
JU601	7066.63252053	3.27830510221	;
JU602	7082.48399605	3.07217709209	;
JU603	7108.41975309	8.27059259259	;
JU604	7092.69912243	3.88255354773	;
JU605	7102.08574653	4.56657677855	;
JU606	7135.19117004	3.58364639294	;
JU607	7096.46577872	3.62909798463	;
JU608	7038.8867284	1.25295740741	;
JU609	7042.85169753	1.43772006173	;
JU610	7068.31134259	2.01551388889	;
JU611	7084.12401138	3.50303238812	;
JU612	7071.28219763	3.36711901042	;
JU613	7074.71444473	4.73037042181	;
JU614	7131.53762056	5.28988543596	;
JU615	7092.90943576	4.39294751157	;
JU616	7097.9162037	1.51181412037	;
JU617	7098.2287037	1.00906412037	;
JU618	7095.37009549	3.1143515625	;
JU619	7090.97041196	3.86894672952	;
JU620	7075.00659621	3.7687264499	;
JU621	7124.75462963	7.72710493827	;
JU622	7081.5562218	5.08413085306	;
JU623	7092.67158823	5.15790731116	;
JU624	7063.73666667	4.97251277778	;
JU625	7178.04956214	2.6859211262	;
JU626	7175.19965278	6.93139930556	;
JU627	7074.41953125	4.63695954861	;
JU628	7100.796	5.509426	;
JU629	7133.610875	3.76352440741	;
JU630	7053.84411946	3.13788588711	;
JU631	7126.1783908	4.50409910306	;
JU632	7095.96759259	2.09936111111	;
JU633	7071.49719136	5.80359233796	;
JU634	7091.29662037	2.56514271605	;
JU635	7057.98394103	3.45133476489	;
JU636	7078.03342378	3.56083655821	;
JU637	7121.89483833	4.38424357773	;
JU638	7158.37889036	2.93968905385	;
JU639	7125.188354	6.22774937459	;
JU640	7073.72394841	2.61673175564	;
JU641	7118.911378	1.55969718519	;
JU642	7099.62954555	4.20559024498	;
JU643	7039.54721008	3.3826760674	;
JU644	7107.01003119	4.36040621741	;
JU645	7090.95926805	2.65986293564	;
JU646	7099.0589488	3.71527202548	;
JU647	7079.66039738	4.42618325617	;
JU648	7055.09026922	4.82349629006	;
JU649	7107.34522487	5.65315318342	;
JU650	7134.18287037	7.71288580247	;
JU651	7064.95789387	4.00257889409	;
JU652	7085.6532628	5.20522406805	;
JU653	7089.31607202	3.03522798843	;
JU654	7096.66459718	3.03580425785	;
JU655	7087.35615638	3.75134345679	;
JU656	7100.11968403	6.12681966204	;
JU657	7054.86912111	2.83023579001	;
JU658	7112.96759259	2.9577037037	;
JU659	7044.26594007	4.38195090278	;
JU660	7093.61462004	4.85175140933	;
JU661	7074.19347701	4.07778568721	;
JU662	7111.31397462	5.29744995885	;
JU663	7153.13424044	3.61279663904	;
JU664	7084.7474927	3.33636809256	;
JU665	7066.11483796	3.32924528807	;
JU666	7088.21533718	5.17384762226	;
JU667	7084.94957099	3.68458743364	;
JU668	7087.17350258	5.15792352404	;
JU669	7092.74945836	3.81024952722	;
JU670	7097.91760279	3.8218544409	;
JU671	7098.75669961	3.86146222057	;
JU672	7067.61541345	2.85386081019	;
JU673	7106.75917455	3.52661295236	;
JU674	7091.92894557	3.66247448728	;
JU675	7096.33699721	2.98909589896	;
JU676	7114.80412257	4.17246713908	;
JU677	7098.89231929	3.79815184678	;
JU678	7079.58868018	4.01654055427	;
JU679	7064.44509635	5.0883739184	;
JU680	7087.34164108	4.03567732468	;
JU681	7096.41437148	3.5776952072	;
JU682	7064.1887004	2.56588689437	;
JU683	7118.95515387	4.43064759119	;
JU684	7157.06698013	6.7349052662	;
JU685	7068.91954731	3.17492823962	;
JU686	7038.7003442	5.93951486343	;
JU687	7086.90969444	3.7127713125	;
JU688	7080.89816404	3.50813932886	;
JU689	7126.34088542	4.07861791088	;
JU690	7146.7109375	4.04590451389	;
JU691	7075.83472963	3.50600727103	;
JU692	7116.92998347	4.48182489342	;
JU693	7103.60663404	2.43144807885	;
JU694	7072.55025065	2.86447989728	;
JU695	7157.81747685	5.72001929012	;
JU696	7068.20317454	2.78579932366	;
JU697	7109.16550926	6.50879861111	;
JU698	7061.48037731	2.31628049424	;
JU699	7150.65692515	5.84228227881	;
JU700	7168.01503472	4.91014619444	;
JU701	7124.65318287	3.35284239969	;
JU702	7065.98106996	5.67916625514	;
JU703	7104.82633565	3.58875157911	;
JU704	7119.62215542	3.65468794607	;
JU705	7066.51054125	3.64401351547	;
JU706	7030.75226852	4.66388888889	;
JU707	7080.9810041	4.5948272325	;
JU708	7068.31295326	5.04681217672	;
JU709	7078.13385303	2.93350063095	;
JU710	7048.54232078	4.14842733414	;
JU711	7061.57337978	2.35018222391	;
JU712	7084.2953125	4.95084635417	;
JU713	7089.39381065	2.21833976973	;
JU714	7032.8767502	1.92902244476	;
JU715	7077.77260922	5.1554731102	;
JU716	7121.44978711	5.69125513997	;
JU717	7045.8645383	1.80533390717	;
JU719	7073.59803039	4.79238779875	;
JU720	7119.91900262	5.46686522377	;
JU721	7149.10590278	6.25919331597	;
JU722	7061.25679675	2.87026245901	;
JU723	7098.32322317	4.55595547679	;
JU724	7122.74665799	3.55991857639	;
JU725	7083.29804398	1.58916500772	;
JU726	7140.20833333	0.335166666667	;
JU727	7074.03524109	3.29438171144	;
JU728	7047.81866667	3.03253866667	;
JU729	7081.66678086	4.48084092284	;
JU730	7079.37480952	6.0789078458	;
JU731	7092.63260802	4.34272083333	;
JU732	7074.02920886	4.30241773312	;
JU733	7092.23867188	5.8563375	;
JU734	7060.2904904	3.39826385124	;
JU735	7087.30935669	3.69663774784	;
JU736	7071.19121549	3.22721500062	;
JU737	7076.07218014	3.80770069518	;
JU738	7059.31588526	3.46431281843	;
JU739	7064.89075426	3.25113951497	;
JU740	7081.48330892	4.19209988366	;
JU741	7060.2904904	3.39826385124	;
JU742	7064.89075426	3.25113951497	;
JU743	7071.19121549	3.22721500062	;
JU744	7080.44354538	5.02664659979	;
JU745	7101.93064231	4.16158293576	;
JU746	7030.53611111	7.36311145833	;
JU747	7057.37872085	4.1189065072	;
JU748	7077.42320475	5.33390883427	;
JU749	7057.54699953	3.83184220782	;
JU750	7124.20964538	5.56109096277	;
JU751	7078.45842496	3.46703074846	;
JU752	7037.73619078	3.99280626407	;
JU753	7102.43893953	3.70142635995	;
JU754	7100.98825304	4.92994869008	;
JU755	7072.23327732	5.02771806565	;
JU756	7069.18698381	4.27728110679	;
JU757	7076.68317833	3.74603771726	;
JU758	7077.52466189	5.11902775045	;
JU759	7064.74157407	2.52757242284	;
JU760	7102.08802723	4.25160352215	;
JU761	7081.60959589	4.58815059472	;
JU762	7050.48921364	2.29101098563	;
JU763	7077.68362702	3.84339311861	;
JU764	7081.79326749	3.80635033462	;
JU765	7105.9836189	3.73315021842	;
JU766	7081.11962242	3.70307761193	;
JU767	7107.67088501	5.47394969843	;
JU768	7128.23165534	5.90491509336	;
JU769	7124.5111478	4.4898031064	;
JU770	7118.05387051	5.1079088996	;
JU771	7048.85518056	1.31802333333	;
JU772	7046.57153515	2.37131188319	;
JU773	7034.63387667	6.52065133745	;
JU774	7046.1941658	4.24941653588	;
JU775	7067.41584475	4.22345074524	;
JU776	7112.99649548	4.61695493489	;
JU777	7045.58822573	6.36454598881	;
JU778	7085.58462221	4.74571416801	;
JU779	7069.60378203	4.61195034704	;
JU780	7105.88355453	2.85899858711	;
JU781	7089.22608891	3.04845964288	;
JU782	7072.09259223	4.9967458619	;
JU783	7044.53944541	5.14651786037	;
JU784	7121.86208118	2.72763053985	;
JU785	7087.50493353	2.9215166119	;
JU786	7093.17638889	2.96341388889	;
JU787	7109.38578166	4.39547646536	;
JU788	7082.37180556	4.85556912616	;
JU789	7081.46901403	2.87263003472	;
JU790	7075.97491891	4.77424494117	;
JU791	7093.21386719	4.10404835069	;
JU792	7064.69195349	4.19860828125	;
JU793	7079.734375	4.41771111111	;
JU794	7105.22888889	5.59751670139	;
JU795	7097.09715093	3.50296668189	;
JU796	7076.64321753	3.67967678144	;
JU797	7090.61682099	5.38592739198	;
JU798	7119.7459612	4.41243203326	;
JU799	7116.89641013	4.16618033575	;
JU800	7153.91643762	4.4038751062	;
JU801	7085.51577283	3.59151453556	;
JU802	7114.37584877	4.43739235376	;
JU803	7119.97710688	5.08123049418	;
JU804	7145.49430983	6.20760926932	;
JU805	7101.23300232	4.17335015868	;
JU806	7101.22051071	7.62475573578	;
JU807	7069.18046131	3.00277154738	;
JU808	7077.80983377	3.62742124058	;
JU809	7142.29324871	6.13466135424	;
JU810	7101.73140065	4.50933438184	;
JU811	7103.20466128	4.78993657794	;
JU812	7089.11266839	2.86562916598	;
JU813	7142.95011321	3.9466915361	;
JU814	7084.52771749	4.39366291148	;
JU815	7077.6013673	4.32797120501	;
JU816	7089.93631928	5.79057902987	;
JU817	7113.73584542	5.12626481584	;
JU818	7099.62262826	5.43720326475	;
JU819	7112.81403266	5.63562663323	;
JU820	7088.67331216	6.11496320321	;
JU821	7083.61307064	5.18815499342	;
JU822	7076.57415123	3.80101733539	;
JU823	7060.67115975	4.31472119489	;
JU824	7073.15847536	4.52079983618	;
JU825	7094.86636706	5.66199491071	;
JU826	7087.87862369	4.82546945347	;
JU827	7053.19904762	4.30604861905	;
JU828	7055.85364848	4.071588431	;
JU829	7107.15861372	4.52679351415	;
JU830	7096.96478574	3.95166133362	;
JU831	7073.20068743	4.38246920775	;
JU832	7081.21934416	4.23130610767	;
JU833	7070.37366818	4.82885032793	;
JU834	7147.81891463	6.8444097449	;
JU835	7140.92385224	4.90100643969	;
JU836	7105.23587302	6.05465258503	;
JU837	7152.3724438	3.15151807566	;
JU838	7080.23550926	6.67787046296	;
JU839	7058.61476595	3.21507867027	;
JU840	7060.99812692	2.0086284382	;
JU841	7099.47983588	3.38610466596	;
JU842	7069.3413547	4.25223082751	;
JU843	7062.23498277	5.22034197757	;
JU844	7063.30050146	5.25032990644	;
JU845	7060.49495701	3.36232602146	;
JU846	7060.08667695	5.95302572016	;
JU847	7063.23400149	2.37022293469	;
JU848	7092.23867188	5.8563375	;