[TITLE]
Generated synthetic network;

[JUNCTIONS]
;ID	Elev	Demand	Pattern
JU1	7074.99950232	2.72953965798	;
JU2	7093.80599074	5.28776560185	;
JU3	7066.12936403	4.86968320923	;
JU4	7152.61501543	6.0114604321	;
JU5	7065.85998303	3.3822084982	;
JU6	7084.66782407	4.56353587963	;
JU7	7047.53050412	5.74529547325	;
JU8	7036.67019033	5.48787952675	;
JU11	7083.27702948	4.80363240585	;
JU12	7101.79166667	7.89875	;
JU13	7043.95611497	6.07216010802	;
JU14	7044.1847198	6.64439036864	;
JU15	7091.12453579	3.15881500465	;
JU16	7155.36455687	6.06606104675	;
JU17	7121.88208876	3.2072952437	;
JU18	7104.99224884	2.39277779398	;
JU19	7113.82333718	4.58318910452	;
JU20	7049.07662669	2.66724972369	;
JU21	7099.72082818	5.45732558489	;
JU22	7116.79676293	5.46184401773	;
JU23	7108.25105228	1.55286318673	;
JU24	7075.12139532	2.81362522634	;
JU25	7071.93228813	2.44113098638	;
JU26	7070.32421103	3.23924954475	;
JU27	7080.78787139	1.94812558409	;
JU28	7082.08898398	2.94069910527	;
JU29	7087.32007887	2.72418751129	;
JU30	7078.85932965	2.60706512662	;
JU31	7055.54929854	224.669049897	;
JU32	7086.99346974	4.66734765305	;
JU33	7093.57728704	27.2737113056	;
JU34	7093.07014181	68.0049919818	;
JU35	7094.568189	5.26129268658	;
JU36	7098.90099167	8.89217916944	;
JU37	7101.78740889	32.1545286933	;
JU38	7097.0310088	44.27867096	;
JU39	7101.83264068	4.63345567965	;
JU40	7165.92720471	4.78665633139	;
JU41	7071.84404536	3.62357656529	;
JU42	7151.81262966	1.08897931346	;
JU43	7110.21613923	4.78672284307	;
JU44	7110.30543627	3.21826981834	;
JU45	7053.44078196	4.17389098542	;
JU46	7080.047136	4.85165358333	;
JU47	7088.69795957	4.63715693227	;
JU48	7066.15999398	4.48010347212	;
JU49	7097.13864036	4.42877757117	;
JU50	7068.62954822	3.60430929415	;
JU51	7051.07558426	3.72277228262	;
JU52	7056.91660516	6.61682214595	;
JU53	7095.3883698	5.33997723428	;
JU54	7117.85208333	4.73191064815	;
JU55	7114.64301328	2.96046812676	;
JU56	7092.0376284	72.3501140759	;
JU57	7059.1748072	1.26590530671	;
JU58	7081.29429495	2.00786499807	;
JU59	7062.52300964	3.15557107259	;
JU60	7090.80045309	2.93479960441	;
JU61	7033.68410494	3.19017314815	;
JU62	7152.9454161	6.52776699817	;
JU63	7103.41539683	3.59781904762	;
JU64	7139.57272377	5.16665972222	;
JU65	7066.84142535	1.59756762847	;
JU66	7069.87234737	0.961029552228	;
JU67	7097.79066743	4.69115061633	;
JU68	7070.43746429	4.04221053792	;
JU69	7057.17227484	4.83692459877	;
JU70	7099.04984396	2.39766658779	;
JU71	7081.00631752	2.55450843943	;
JU72	7044.36016594	6.87766671065	;
JU73	7071.85515769	6.20269232486	;
JU74	7070.09125313	4.55505915799	;
JU75	7050.44035632	2.96345601994	;
JU76	7083.82395293	4.3258007197	;
JU77	7125.81052695	4.18694808188	;
JU78	7072.95524691	4.28162962963	;
JU79	7035.22237037	2.67965377778	;
JU80	7045.84850556	5.75765	;
JU81	7031.04503333	2.58596724444	;
JU83	7043.57638889	4.22710416667	;
JU84	7086.65518353	2.09444945437	;
JU85	7048.56502315	4.36247048611	;
JU86	7049.38166924	4.34869315844	;
JU87	7074.7851594	2.93059145657	;
JU88	7086.53695185	2.62066742069	;
JU89	7087.32320046	2.34807889236	;
JU90	7086.33627695	2.59017753051	;
JU91	7111.06035791	3.87074092739	;
JU92	7091.07255556	4.36522733333	;
JU93	7078.85709503	4.30951423018	;
JU94	7081.91973522	4.22491302768	;
JU95	7080.24453959	4.37706331034	;
JU96	7115.86459665	3.984656713	;
JU97	7087.47051953	5.83706919126	;
JU98	7113.03783059	4.48612695011	;
JU99	7107.40783121	2.86312172164	;
JU100	7053.31041667	3.00796666667	;
JU101	7067.68470775	3.48089614583	;
JU102	7111.82644015	5.40952560406	;
JU103	7076.77563776	3.82095901361	;
JU104	7113.18922482	5.67080617544	;
JU105	7039.02083333	6.05229166667	;
JU106	7148.87509958	5.36392763181	;
JU107	7141.47320216	1.47945007716	;
JU108	7063.47222222	4.85235185185	;
JU109	7142.04422222	5.70158122222	;
JU110	7106.4658015	4.37648082755	;
JU111	7072.02219817	4.43923259105	;
JU112	7116.15092948	2.2982595151	;
JU113	7042.875	1.0055	;
JU114	7074.1603627	3.27453247934	;
JU115	7081.83017752	1.59040441047	;
JU116	7071.57784127	3.92395284656	;
JU117	7068.3903858	2.53125404321	;
JU118	7110.28898399	2.62014914102	;
JU119	7070.97153549	4.73708138889	;
JU120	7070.74814879	3.85363944187	;
JU121	7111.76828952	2.88503228538	;
JU122	7032.63794062	3.49196681308	;
JU123	7032.25552662	1.89912931134	;
JU124	7089.76852349	2.15466767238	;
JU125	7091.14261068	2.18700924479	;
JU126	7049.26113763	2.34917460265	;
JU127	7112.9430001	2.70031701508	;
JU128	7055.80935857	3.48648930009	;
JU129	7109.42654035	3.84391223708	;
JU130	7114.26460915	4.64410461831	;
JU131	7049.56165847	2.13875776731	;
JU132	7121.47875418	3.2700098761	;
JU133	7053.15192668	3.73814855764	;
JU134	7086.86257075	112.835309879	;
JU135	7104.98611353	19.6696970654	;
JU136	7054.0	1.34066666667	;
JU137	7070.31639536	3.67511055904	;
JU138	7057.51303422	5.10854664868	;
JU139	7065.20842771	5.49961037223	;
JU140	7104.22012475	9.52783273645	;
JU141	7091.72703045	12.4218828143	;
JU142	7120.65531764	4.51755426955	;
JU143	7110.86538683	4.13591639313	;
JU144	7124.03472288	4.98575594718	;
JU145	7066.45574251	4.41526892823	;
JU146	7100.24554461	38.4999734734	;
JU147	7074.47204017	4.98332613329	;
JU148	7057.34441936	4.16781125348	;
JU149	7109.75923037	3.40607914718	;
JU150	7073.90689907	2.66652357407	;
JU151	7095.69326051	3.03900925444	;
JU152	7097.47820374	3.56714584436	;
JU153	7087.05216336	4.71431909242	;
JU154	7116.01197682	6.05008033131	;
JU155	7069.05006111	3.34588470926	;
JU156	7115.18055556	4.7184537037	;
JU157	7032.48020833	4.49417291667	;
JU158	7102.07644015	4.30652560406	;
JU159	7122.57405364	5.95103876031	;
JU160	7073.83333333	3.48166666667	;
JU161	7117.39045969	3.14758119461	;
JU162	7067.24444444	5.497218107	;
JU163	7037.48918519	0.961287259259	;
JU164	7073.49414482	2.25078095983	;
JU165	7111.41098876	4.82322388352	;
JU166	7088.23932099	3.34282513117	;
JU167	7049.81958912	2.18192618634	;
JU168	7103.06677517	5.28898045428	;
JU169	7082.17631173	3.11648881173	;
JU170	7074.74124357	4.50274162239	;
JU171	7055.39263265	2.65930402419	;
JU172	7050.5301466	6.64672043388	;
JU173	7084.38223751	3.82087526606	;
JU174	7144.44722237	2.34006125712	;
JU175	7075.10250816	6.42891021869	;
JU176	7058.58108319	2.89531266392	;
JU177	7127.73089059	4.94590876053	;
JU178	7068.97372685	5.82939884259	;
JU179	7043.03240856	3.99470218128	;
JU180	7068.47530864	3.15304938272	;
JU181	7047.40556584	2.03820308642	;
JU182	7068.63437616	1.31734806944	;
JU183	7123.6293767	2.89302355915	;
JU184	7041.26296296	4.35919259259	;
JU185	7052.51777761	3.56718198805	;
JU186	7090.57034504	4.38385743441	;
JU187	7061.84667108	2.50840348325	;
JU188	7047.41358025	2.54041975309	;
JU189	7055.48333333	3.04080555556	;
JU190	7058.88068514	3.02967722443	;
JU191	7082.16756237	4.45132916614	;
JU192	7064.45659722	5.25130729167	;
JU193	7085.14956211	5.62412735854	;
JU194	7101.4219551	3.03948968456	;
JU195	7081.09697216	4.1990096643	;
JU196	7089.97076844	3.56319959017	;
JU197	7126.69048086	5.45729901093	;
JU198	7092.64097222	4.35180712963	;
JU199	7084.20555556	3.40732222222	;
JU200	7088.98638889	6.97155166667	;
JU201	7082.15625	5.246875	;
JU202	7096.70833333	2.88198148148	;
JU203	7131.72332718	1.96729589916	;
JU204	7129.64980903	3.59822447917	;
JU205	7039.56714844	5.45494208333	;
JU206	7088.01674584	2.53836448864	;
JU207	7130.69087302	1.52250825397	;
JU208	7096.00181134	5.04977418056	;
JU209	7030.30705313	5.25485757476	;
JU210	7135.68857804	3.4116904828	;
JU211	7090.71482607	4.66953523341	;
JU212	7094.1091786	4.62131718086	;
JU213	7089.52862261	3.47880563063	;
JU214	7084.34550627	2.11161977714	;
JU215	7075.20060764	3.48937297454	;
JU216	7078.37781416	5.29007963544	;
JU217	7070.20268934	3.60490696568	;
JU218	7079.65557117	3.68119695325	;
JU219	7186.8409371	1.33153396991	;
JU220	7125.42589148	5.54711602979	;
JU221	7049.47508697	3.03815818094	;
JU222	7044.00856673	3.44830245278	;
JU223	7066.9750047	3.0085783565	;
JU224	7063.47222222	4.85235185185	;
JU225	7133.47133608	0.725662109375	;
JU226	7095.76009594	4.89999240252	;
JU227	7066.9390873	5.59036097884	;
JU228	7086.14363026	4.22326192471	;
JU229	7069.16328144	4.77750239043	;
JU230	7133.34548784	5.96378723677	;
JU231	7062.10456276	2.5628824177	;
JU232	7098.72928447	4.47564235725	;
JU233	7126.56956963	2.72542471885	;
JU234	7034.97315547	3.35762737554	;
JU235	7055.93350694	3.7217609375	;
JU236	7082.213552	5.46890456385	;
JU237	7100.24951559	5.15404756125	;
JU238	7063.13194444	1.75496990741	;
JU239	7071.91084724	4.58237780078	;
JU240	7081.36361235	6.91813648313	;
JU241	7082.85748641	2.90668176073	;
JU242	7146.0452758	4.74200149318	;
JU243	7094.70627786	2.9958376949	;
JU244	7050.13383322	4.38926428424	;
JU245	7121.59616243	5.81321013336	;
JU246	7095.3461469	4.38231771487	;
JU247	7185.99200831	1.28595378971	;
JU248	7134.41890278	2.89679066667	;
JU249	7104.38046388	2.94248968819	;
JU250	7079.63907873	2.70847803343	;
JU251	7074.40470679	2.90879884259	;
JU252	7072.32949771	7.84705523771	;
JU253	7058.72737347	4.09774353329	;
JU254	7042.05736243	4.9033485726	;
JU255	7064.02204052	6.02260884242	;
JU256	7049.86643519	3.07863122685	;
JU257	7064.1541985	3.23010916763	;
JU258	7142.15763889	2.74419861111	;
JU259	7064.45659722	5.25130729167	;
JU260	7043.32535669	4.57507941483	;
JU261	7055.80274034	3.41812996894	;
JU262	7107.90028903	3.80400116512	;
JU263	7105.7170332	3.87155013117	;
JU264	7120.39464672	3.86907636531	;
JU265	7081.51340278	5.56841666667	;
JU266	7078.20440095	5.16782351466	;
JU267	7081.61146389	4.88447095	;
JU268	7060.26228877	5.15334513889	;
JU269	7060.92485935	5.10639499252	;
JU270	7111.43609883	5.76643218338	;
JU271	7071.32402572	3.74947558951	;
JU272	7093.0652846	4.60845089414	;
JU273	7078.77523239	4.34115256465	;
JU274	7124.27197573	3.58992530354	;
JU275	7103.37479355	2.82186324572	;
JU276	7126.16658496	2.72605748544	;
JU277	7129.31161457	2.69022360248	;
JU278	7099.37555556	4.35102053241	;
JU279	7020.54278543	4.82938460825	;
JU280	7050.21504284	4.19037739847	;
JU281	7053.10085714	5.3822992973	;
JU282	7140.51756607	5.75225249882	;
JU283	7089.55669753	2.29363546296	;
JU284	7094.4400866	2.81476258045	;
JU285	7088.51239543	2.501796916	;
JU286	7069.93599537	2.72196626157	;
JU287	7124.27618018	2.86559485311	;
JU288	7100.8139027	3.79361632573	;
JU289	7143.80972222	4.91665277778	;
JU290	7146.25888889	2.81518317901	;
JU291	7044.00856673	3.44830245278	;
JU292	7060.92485935	5.10639499252	;
JU293	7054.18250386	1.99359588477	;
JU294	7131.40210362	3.88678108466	;
JU295	7130.36833333	4.34111333333	;
JU296	7139.34791504	1.78793110185	;
JU297	7041.41415344	1.07762017196	;
JU298	7088.93087839	4.50739820903	;
JU299	7076.91213201	3.74514577857	;
JU300	7088.88036524	4.49234764118	;
JU301	7040.98590892	4.01999992713	;
JU302	7169.05909208	7.12337842936	;
JU303	7104.20769801	4.20214267642	;
JU304	7132.76446904	3.57244423251	;
JU305	7071.33272135	5.44569899523	;
JU306	7080.95680041	4.41326198131	;
JU307	7101.11230159	4.55511746032	;
JU308	7152.60079739	3.47288168847	;
JU309	7147.45635417	1.40001111111	;
JU310	7097.90723334	4.26753922944	;
JU311	7131.98381575	2.55468458818	;
JU312	7075.7313989	4.52067653652	;
JU313	7082.83729168	4.60862885014	;
JU314	7153.54490857	5.17809373491	;
JU315	7083.63323663	5.16916841975	;
JU316	7036.40825231	3.22950532407	;
JU317	7107.3626	4.16105064815	;
JU318	7055.31894339	5.69371526261	;
JU319	7074.1484409	4.90790598341	;
JU320	7099.67407242	6.87956805609	;
JU321	7075.60156195	4.59522295535	;
JU322	7041.43055556	5.60811111111	;
JU323	7088.72266413	3.15631287862	;
JU324	7090.65948878	3.12902881198	;
JU325	7142.85040166	1.60626340706	;
JU326	7162.60784994	1.29823718507	;
JU327	7082.54907101	3.66484515055	;
JU328	7094.81482765	3.99767619107	;
JU329	7107.31293531	4.25926924847	;
JU330	7091.95416154	3.60831796987	;
JU331	7119.50345509	3.85230644167	;
JU332	7088.06600691	3.86419197579	;
JU333	7079.16649106	3.12926220938	;
JU334	7071.36250231	1.48644613889	;
JU335	7063.12216226	4.84256202846	;
JU336	7113.35913789	151.631250736	;
JU337	7093.06419753	4.20457777778	;
JU338	7072.82518056	4.19613194444	;
JU339	7148.95385802	0.975140895062	;
JU340	7151.81262966	1.08897931346	;
JU341	7167.39676649	0.836715219907	;
JU342	7160.84250776	1.11619340061	;
JU343	7170.79427083	0.704202546296	;
JU344	7131.98381575	2.55468458818	;
JU345	7097.90723334	4.26753922944	;
JU346	7083.63323663	5.16916841975	;
JU347	7081.61146389	4.88447095	;
JU348	7105.0740096	2.26815983181	;
JU349	7089.80956469	3.42943672743	;
JU350	7049.4532182	5.41732271828	;
JU351	7128.54024306	5.425309375	;
JU352	7043.39046091	4.877811107	;
JU353	7052.03088236	2.94867064878	;
JU354	7144.52656481	5.7449491358	;
JU355	7075.30835134	5.45009106584	;
JU356	7121.15793789	1.56435706019	;
JU357	7108.07464444	4.74202666667	;
JU358	7146.89184021	6.25534687972	;
JU359	7061.58902081	2.63025103038	;
JU360	7083.52790638	2.11077008745	;
JU361	7082.31752451	3.84409395961	;
JU362	7087.55536367	4.17060189829	;
JU363	7132.84146745	2.90993957087	;
JU364	7098.54760417	4.0816130787	;
JU365	7060.40053723	5.45728427533	;
JU366	7100.94771412	52.1711765046	;
JU367	7033.29426257	5.14122071208	;
JU368	7087.4753031	3.14781378059	;
JU369	6996.16428571	0.355247619048	;
JU370	7104.63970255	3.1594125	;
JU371	7080.10238666	3.69038285777	;
JU372	7099.60551196	4.57647550693	;
JU373	7058.14618056	2.14574305556	;
JU374	7069.63655876	3.98442616855	;
JU375	7092.75791556	3.52346926627	;
JU376	7076.83357072	4.37500301818	;
JU377	7072.16666667	4.41206481481	;
JU378	7073.01770833	1.46635416667	;
JU379	7093.62057468	4.85462389628	;
JU380	7123.0921875	2.045415625	;
JU381	7084.80947961	4.46409263363	;
JU382	7136.77032826	5.81350388491	;
JU383	7077.59633306	4.0429312608	;
JU384	7058.56472222	4.22416833333	;
JU385	7067.86959141	3.79242588219	;
JU386	7074.65640046	5.62959793981	;
JU387	7065.67926586	2.84560520706	;
JU388	7092.28405518	2.58653566189	;
JU389	7064.19427083	3.79320833333	;
JU390	7053.57290013	3.59132906085	;
JU391	7102.73024949	1.69639820473	;
JU392	7095.6697615	4.09967510184	;
JU393	7080.90850034	3.24444083076	;
JU394	7044.95451389	3.53192682292	;
JU395	7068.75345243	3.14194170303	;
JU396	7132.10221533	6.30147211271	;
JU397	7109.76087959	3.56333551429	;
JU398	7081.90095455	3.94225181897	;
JU399	7096.67046511	3.39362845271	;
JU400	7093.91206291	3.37167111128	;
JU401	7141.6380625	5.87291891015	;
JU402	7109.18755685	1.71640504998	;
JU403	7084.49305556	4.20703125	;
JU404	7101.45111164	5.33993149314	;
JU405	7042.68209877	2.4974	;
JU406	7092.13643084	4.43886956115	;
JU407	7088.76108391	2.80314042107	;
JU408	7051.05208333	2.78010416667	;
JU409	7101.23669303	50.7318295396	;
JU410	7117.48472222	3.92812361111	;
JU411	7079.37999668	4.42642083673	;
JU412	7084.80947961	4.46409263363	;
JU413	7143.28105556	4.08989166667	;
JU414	7102.95	2.793625643	;
JU415	7082.09550319	2.99324008169	;
JU416	7130.39239211	3.32280046048	;
JU417	7115.92184834	4.43223019414	;
JU418	7077.45003139	2.71585597635	;
JU419	7084.98382308	4.14246115931	;
JU420	7101.45111164	5.33993149314	;
JU421	7098.90493769	4.70566141564	;
JU422	7053.82343372	4.74890546646	;
JU423	7107.12837061	3.22389867033	;
JU424	7074.44942601	5.93624870523	;
JU425	7091.28474732	5.25529634406	;
JU426	7092.06831876	4.45131753015	;
JU427	7092.06831876	4.45131753015	;
JU428	7095.001869	8.21506431147	;
JU429	7125.68009629	34.5798183604	;
JU430	7094.0146732	130.088467933	;
JU431	7075.04468267	194.596397468	;
JU432	7083.38522399	4.71020668662	;
JU433	7083.38522399	4.71020668662	;
JU434	7080.04260261	3.97298572827	;
JU435	7080.52382474	4.56126028439	;
JU436	7058.13811042	4.55843645108	;
JU437	7089.76570886	2.09065319327	;
JU438	7051.10062371	1.45636995885	;
JU439	7120.76802422	7.5359193179	;
JU440	7094.88433529	4.70329594009	;
JU441	7109.01371764	2.30677208819	;
JU442	7119.74990049	3.40275037833	;
JU443	7044.26017319	3.85606258606	;
JU444	7106.52614737	2.68844768389	;
JU445	7060.87133488	4.48609657922	;
JU446	7077.7202961	2.17085048225	;
JU447	7088.55754523	89.0466276122	;
JU448	7127.06166088	1.29058993056	;
JU449	7068.71520387	4.04772511181	;
JU450	7153.04939815	3.38007453704	;
JU451	7085.43170718	3.28932909259	;
JU452	7081.33582614	3.30368256778	;
JU453	7073.07490651	4.26135158526	;
JU454	7054.99306548	7.41109464286	;
JU455	7047.24041885	3.46627157407	;
JU456	7051.69444444	1.37677777778	;
JU457	7076.55347126	4.51564120323	;
JU458	7071.93016947	4.31457860189	;
JU459	7076.58120155	5.37604662251	;
JU460	7056.29615055	2.23879115226	;
JU461	7047.41358025	2.54041975309	;
JU462	7066.82407407	2.96142592593	;
JU463	7046.14640432	1.80134705075	;
JU464	7092.40121315	4.04290421301	;
JU465	7125.44594312	5.55517582083	;
JU466	7076.55347126	4.51564120323	;
JU467	7148.7662037	5.33365740741	;
JU468	7150.4202284	4.78418346316	;
JU469	7080.97122488	4.00651778695	;
JU470	7150.53266393	3.53502085433	;
JU471	7076.71477658	3.60419073194	;
JU472	7076.57235813	3.06515350998	;
JU473	7106.2989503	86.9233092528	;
JU474	7094.14056403	2.40597766185	;
JU475	7121.03924383	2.4180337963	;
JU476	7044.83181711	4.98820434163	;
JU477	7138.43080264	4.22797055271	;
JU478	7094.27274306	4.19062118056	;
JU479	7073.76961681	4.62074205593	;
JU480	7068.65503763	5.11134113569	;
JU481	7093.76898148	3.38869824074	;
JU482	7086.43639354	3.68395248551	;
JU483	7073.94330357	3.18672345238	;
JU484	7066.75	1.36955555556	;
JU485	7089.76239363	1.24905179417	;
JU486	7061.89315072	3.26784724123	;
JU487	7058.68098958	1.96357624421	;
JU488	7045.70805556	4.28935518519	;
JU489	7072.2055956	3.4284953435	;
JU490	7086.79403029	3.5919401088	;
JU491	7106.12372039	4.48431935626	;
JU492	7097.66674769	2.28500678241	;
JU493	7106.42590076	5.37379557339	;
JU494	7114.61801955	1.71116098589	;
JU495	7108.7972412	4.52223937929	;
JU496	7089.43767588	1.58590228264	;
JU497	7074.32373754	2.31361877492	;
JU498	7158.08566667	5.72483466667	;
JU499	7035.8212963	4.12009328704	;
JU500	7140.65710355	4.09025748706	;
JU501	7036.29615008	4.22432396451	;
JU502	7074.51696713	3.36734187812	;
JU503	7089.08321806	5.13268149551	;
JU504	7108.24411983	3.79020973015	;
JU505	7056.3734127	2.99618695437	;
JU506	7057.43642747	4.83424259259	;
JU507	7086.40663889	3.86019661111	;
JU508	7096.990625	3.18367291667	;
JU509	7071.94244329	5.21192150694	;
JU510	7086.13500977	3.43941853841	;
JU511	7093.81251389	3.03467683333	;
JU512	7133.26730324	3.11236875	;
JU513	7098.50122569	4.08838504167	;
JU514	7044.42185847	5.26916364638	;
JU515	7088.90749867	4.09947412503	;
JU516	7068.46005534	4.83975248305	;
JU517	7074.48741319	1.02506163194	;
JU518	7102.89613819	2.48659984378	;
JU519	7082.32193302	4.73428825623	;
JU520	7081.62271526	1.28579457883	;
JU521	7118.95345883	2.89027916663	;
JU522	7051.74051587	3.0650605291	;
JU523	7116.59993891	1.60772392618	;
JU524	7051.74051587	3.0650605291	;
JU525	7116.59993891	1.60772392618	;
JU526	7104.88479502	2.62198111808	;
JU527	7132.74235765	2.83774833253	;
JU528	7145.53703704	4.61694444444	;
JU529	7092.49375	3.2986575	;
JU530	7108.11340278	3.42062314815	;
JU531	7112.16060631	5.71591119759	;
JU532	7112.16060631	5.71591119759	;
JU533	7118.98805759	4.82311073328	;
JU534	7150.68074868	4.49058562096	;
JU535	7154.2918337	5.95048820616	;
JU536	7159.94200045	6.16037578206	;
JU537	7132.77326075	5.40399361275	;
JU538	7132.77326075	5.40399361275	;
JU539	7050.83506804	4.03911232116	;
JU540	7036.78407926	2.86339506889	;
JU541	7095.8091791	3.4664297639	;
JU542	7013.9729766	0.785441842345	;
JU543	7093.69359054	5.78511410649	;
JU544	7087.0208726	5.22855314153	;
JU545	7124.65151227	3.43591910104	;
JU546	7088.39825218	3.15645144993	;
JU547	7058.9786968	1.85101546484	;
JU548	7118.60487234	3.81944374796	;
JU549	7097.14249936	4.74496544496	;
JU550	7076.14622225	3.84737979231	;
JU551	7099.07438794	4.47657396158	;
JU552	7038.38518519	1.07219444444	;
JU553	7050.01109877	3.15196464609	;
JU554	7131.95950794	5.4290651455	;
JU555	7104.22770833	2.79188408179	;
JU556	7068.24520139	2.14784202083	;
JU557	7044.87691799	3.47048974868	;
JU558	7108.77855944	3.07791975198	;
JU559	7098.22490233	4.75706093673	;
JU560	7128.69520462	4.31856928441	;
JU561	7075.27372602	2.40137748362	;
JU562	7103.76889109	4.41637258506	;
JU563	7102.29236471	5.50684722101	;
JU564	7117.04750193	1.73880960648	;
JU565	7117.83862305	5.03850743273	;
JU566	7085.60582312	3.09035581474	;
JU567	7097.65040506	2.76742176482	;
JU568	7141.83924797	2.85268614152	;
JU569	7102.62150921	4.80765989918	;
JU570	7095.5241884	2.30345664327	;
JU571	7061.00854006	1.53747507202	;
JU572	7078.92929741	2.59376353908	;
JU573	7064.68333333	4.21849444444	;
JU574	7036.29326389	3.10735657407	;
JU575	7094.59328704	2.99069927984	;
JU576	7115.76613711	2.31359977172	;
JU577	7132.96119909	4.41969579575	;
JU578	7131.76737829	4.84405304305	;
JU579	7136.6384571	2.97979294301	;
JU580	7138.85748091	1.92630324442	;
JU581	7096.19390021	204.810263784	;
JU582	7091.76491622	2.59274357607	;
JU583	7113.81157127	3.94624019598	;
JU584	7122.53323417	4.36487808557	;
JU585	7133.8485108	5.76424271605	;
JU586	7064.9633581	3.90860685378	;
JU587	7066.59990877	4.45120861465	;
JU588	7073.27854747	2.60028905056	;
JU589	7057.75255397	3.41702833297	;
JU590	7067.1945409	4.1244220679	;
JU591	7140.07795062	3.43408320988	;
JU592	7091.04552624	3.21128521824	;
JU593	7084.375	4.671	;
JU594	7067.61815574	2.69948311263	;
JU595	7066.89059271	3.99953325671	;
JU596	7091.75146742	4.89359941584	;
JU597	7026.89590278	3.16187009259	;
JU598	7070.06856889	3.38054892833	;
JU599	7083.96939436	3.00218588441	;
JU600	7128.42533258	5.43399537972	;
JU601	7140.88365644	1.23740422454	;
JU602	7151.55183063	1.48660872685	;
JU603	7090.27247018	4.62508523823	;
JU604	7056.29033927	4.33506545917	;
JU605	7159.93240741	0.468555555556	;
JU606	7079.33351848	5.4959267199	;
JU607	7099.98517188	5.30568657307	;
JU608	7095.37249589	5.13683821515	;
JU609	7114.64301328	2.96046812676	;
JU610	7110.30543627	3.21826981834	;
JU611	7070.76187443	2.3740655357	;
JU612	7120.38784259	5.9056149537	;
JU613	7086.78496565	4.01457609695	;
JU614	7111.13861491	4.30576503906	;
JU615	7081.49812915	4.60352145212	;
JU616	7100.81704102	4.6233671875	;
JU617	7061.95670187	3.9830773736	;
JU618	7083.04736712	1.27927464346	;
JU619	7100.83652088	2.54140111435	;
JU620	7054.3650907	1.66480979717	;
JU621	7145.82584877	2.96101643519	;
JU622	7056.54115226	4.89389454733	;
JU623	7082.15502312	3.1810314321	;
JU624	7118.42379737	5.56598416396	;
JU625	7141.50166538	0.96430783179	;
JU626	7063.98994985	4.54151425154	;
JU627	7067.93643953	3.89021434028	;
JU628	7084.85249012	4.33399840278	;
JU629	7103.06677517	5.28898045428	;
JU630	7146.0452758	4.74200149318	;
JU631	7072.3091016	6.33978252508	;
JU632	7148.91180556	0.792355555556	;
JU633	7129.846588	1.8138394043	;
JU634	7048.64583333	2.12322916667	;
JU635	7032.37134583	2.51725808565	;
JU636	7067.22575747	6.4402341845	;
JU637	7087.0741438	4.98535295463	;
JU638	7076.55421315	4.87009192281	;
JU639	7097.76816128	2.95291477202	;
JU640	7084.38223751	3.82087526606	;
JU641	7116.67589078	3.74929504351	;
JU642	7114.89747942	1.3225024177	;
JU643	7111.9212963	3.1890462963	;
JU644	7079.6458695	5.35873584587	;
JU645	7097.62276847	3.10984900978	;
JU646	7091.68818204	4.26564484127	;
JU647	7055.94668903	1.67249130104	;
JU648	7100.636098	4.26327986168	;
JU649	7069.19880952	2.70570634921	;
JU650	7074.37540701	2.79140227329	;
JU651	7085.6199537	5.61883080247	;
JU652	7133.63620223	3.34466082892	;
JU653	7094.17236781	4.45226485719	;
JU654	7089.29360918	2.81157500129	;
JU655	7066.26439204	3.73149593943	;
JU656	7039.44893539	4.90924628016	;
JU657	7051.07558426	3.72277228262	;
JU658	7023.89354167	3.38745947531	;
JU659	7095.85104392	2.25926845656	;
JU660	7106.80118199	3.10640107625	;
JU661	7113.01964081	3.00174464982	;
JU662	7106.73454968	2.9120654553	;
JU663	7109.40052989	3.07347987153	;
JU664	7102.2402691	3.15638117605	;
JU665	7081.27785012	2.97232696759	;
JU666	7069.39488071	4.64961908465	;
JU667	7111.98557374	5.14815261243	;
JU668	7091.57241317	1.4262327471	;
JU669	7124.65908826	4.90896749309	;
JU670	7098.07091117	3.82610653102	;
JU671	7072.09444692	7.6226156746	;
JU672	7109.1588161	3.77831880804	;
JU673	7080.43560892	4.55078928541	;
JU674	7108.29289952	1.5763401989	;
JU675	7064.19912214	4.62034491203	;
JU676	7143.8572338	1.40268279321	;
JU677	7124.57152778	5.25919555556	;
JU678	7089.66547309	1.19874305556	;
JU679	7106.22142061	6.08984282122	;
JU680	7069.26811892	1.48450375174	;
JU681	7105.14946184	5.59246837059	;
JU682	7061.97096982	3.53352280678	;
JU683	7131.08247222	4.48337301389	;
JU684	7093.41339176	4.64139414063	;
JU685	7046.51881944	4.87911212963	;
JU686	7108.82500686	3.02614804655	;
JU687	7051.8219246	3.54853174603	;
JU688	7102.269285	3.26290112843	;
JU689	7096.99936472	4.92747470453	;
JU690	7188.65748121	1.24449348694	;
JU691	7075.92548473	5.62438512309	;
JU692	7100.8159738	5.31059355031	;
JU693	7111.55604323	3.83110069956	;
JU694	7070.38363659	2.70898267233	;
JU695	7090.71482607	4.66953523341	;
JU696	7037.61484375	3.52732844618	;
JU697	7084.91924715	2.16836430843	;
JU698	7090.69657998	2.53046986552	;
JU699	7085.66877546	2.81139030602	;
JU700	7080.28970258	2.44410786753	;
JU701	7094.6652415	3.18887581435	;
JU702	7080.29887517	4.23093175789	;
JU703	7068.55548354	3.87087929115	;
JU704	7046.98872685	3.6085145823	;
JU705	7070.34750794	4.61047158377	;
JU706	7104.69383521	3.937213757	;
JU707	7105.36643188	1.82301220757	;
JU708	7107.73339669	5.96298627624	;
JU709	7104.69383521	3.937213757	;
JU710	7097.81483347	4.23608945384	;
JU711	7035.22237037	2.67965377778	;
JU712	7075.55301468	5.27945673466	;
JU713	7097.59635753	1.96550446507	;
JU714	7069.44675926	4.96357067901	;
JU715	7055.09651675	3.82462331217	;
JU716	7087.075	2.22185	;
JU717	7024.90349537	5.10250466435	;
JU718	7089.08859819	4.98237566421	;
JU719	7096.53715362	5.68938180556	;
JU720	7108.53551163	4.40308422433	;
JU721	7031.0150463	3.64723055556	;
JU722	7080.4927792	3.33437698098	;
JU723	7077.66674211	3.02048752401	;
JU724	7138.30840794	4.58650457253	;
JU725	7049.46200238	2.54350456584	;
JU726	7080.40709235	3.05949496324	;
JU727	7050.22947277	2.70189533611	;
JU728	7045.74765748	2.63578191771	;
JU729	7092.36415896	3.503294129	;
JU730	7087.8346869	3.2123360578	;
JU731	7041.64957739	2.64886388444	;
JU732	7049.46200238	2.54350456584	;
JU733	7099.03003669	4.19942256188	;
JU734	7124.4465162	4.32192650463	;
JU735	7063.57133102	4.02219637346	;
JU736	7070.17441551	3.0799009838	;
JU737	7122.23350202	2.88011109671	;
JU738	7056.33234156	4.24345307226	;
JU739	7133.70473262	3.9868408623	;
JU740	7107.34925668	5.27371784926	;
JU741	7041.64957739	2.64886388444	;
JU742	7050.40429125	1.76750057436	;
JU743	7164.5450463	1.79495111111	;
JU744	7103.19955452	107.709467769	;
JU745	7117.80385671	2.48929149583	;
JU746	7132.53574184	2.55154866623	;
JU747	7049.71098894	2.5792746142	;
JU748	7106.93698813	2.51392954035	;
JU749	7084.9942607	2.81273058508	;
JU750	7113.5453074	3.47594417009	;
JU751	7086.62611033	4.42179481608	;
JU752	7094.13067587	3.34539412875	;
JU753	7101.84774691	4.25974203704	;
JU754	7071.3172428	3.21848864198	;
JU755	7158.95023148	5.28012413194	;
JU756	7069.55367498	3.578021857	;
JU757	7071.45271847	2.38799758377	;
JU758	7039.84417929	2.81283784819	;
JU759	7085.16734766	3.88804969197	;
JU760	7068.17160461	3.12517853197	;
JU761	7113.60235519	3.8051748901	;
JU762	7075.55301468	5.27945673466	;
JU763	7064.89452184	5.19025552984	;
JU764	7066.71963252	3.04935506366	;
JU765	7062.65285012	2.46957696759	;
JU766	7081.27785012	2.97232696759	;
JU767	7084.74107143	3.05828571429	;
JU768	7076.4937996	5.09460119048	;
JU769	7109.76922123	5.84413839286	;
JU770	7080.04236111	6.13508888889	;
JU771	7107.70166144	5.32624783429	;
JU772	7028.15625	7.8946875	;
JU773	7110.30487269	3.63899243656	;
JU774	7064.1	7.18799444444	;
JU775	7131.2749899	5.77716971634	;
JU776	7108.01912153	5.62827736979	;
JU777	7063.04367238	5.2279805606	;
JU778	7135.54129303	2.83982392803	;
JU779	7058.5262037	2.32505467593	;
JU780	7106.15454148	4.94797850815	;
JU781	7104.63416291	5.1628738552	;
JU782	7112.66486235	4.73642813272	;
JU783	7034.31395089	5.2780058631	;
JU784	7071.40265239	3.2593783179	;
JU785	7054.46421097	1.92349034862	;
JU786	7076.83674409	5.75711974585	;
JU787	7070.06546147	5.194761636	;
JU788	7082.26541539	4.86059174619	;
JU789	7076.83674409	5.75711974585	;
JU790	7079.24065854	3.64867240377	;
JU791	7087.45319381	4.60619943791	;
JU792	7074.80379087	2.27460750121	;
JU793	7057.20915125	4.57321555709	;
JU794	7083.84713332	3.93039435357	;
JU795	7054.34115998	3.94449099794	;
JU796	7092.23577659	4.51399129276	;
JU797	7052.06767233	4.50037207433	;
JU798	7061.53774442	4.53756219564	;
JU799	7085.07889416	4.57554845679	;
JU800	7060.58818371	4.43447811535	;
JU801	7094.83333333	6.07666666667	;
JU802	7056.89974416	5.52004372444	;
JU803	7039.90955279	3.16764781973	;
JU804	7055.73884496	4.89188606263	;
JU805	7077.18320317	3.70470175087	;
JU806	7101.26800772	2.20598682001	;
JU807	7117.95788667	3.9109402387	;
JU808	7105.15191598	4.7171964892	;
JU809	7113.42118827	4.59971719136	;
JU810	7103.93327767	3.93191799052	;
JU811	7067.05061728	2.26025421811	;
JU812	7084.7105245	2.85297724609	;
JU813	7089.67037037	2.85182592593	;
JU814	7083.36456061	3.08519448474	;
JU815	7079.10687607	4.33281940661	;
JU816	7076.05072916	4.24482854692	;
JU817	7061.54341541	2.91208427846	;
JU818	7069.6393901	3.63546280496	;
JU819	7083.54916242	3.57865358088	;
JU820	7054.70807245	2.86050941118	;
JU821	7086.65103113	2.89408474187	;
JU822	7061.78313066	3.99743972712	;
JU823	7062.26796612	4.97327285433	;
JU824	7104.58892679	2.77012311384	;
JU825	7108.11860854	5.07552722479	;
JU826	7069.74010531	0.624944683504	;
JU827	7097.90673532	3.19733864673	;
JU828	7057.19175421	4.571561893	;
JU829	7088.26260412	4.29745530641	;
JU830	7028.36231887	4.98747259144	;
JU831	7095.25303627	5.49784266202	;
JU832	7037.56813066	4.13437431379	;
JU833	7099.07438794	4.47657396158	;
JU834	7120.95604748	5.78807934153	;
JU835	7103.98463511	3.46155050774	;
JU836	7055.52752557	3.76235720419	;
JU837	7098.72928447	4.47564235725	;
JU838	7119.93333333	2.4522	;
JU839	7103.95833333	2.878875	;
JU840	7130.6546358	1.61382997531	;
JU841	7093.91430791	2.86664053198	;
JU842	7071.68998029	3.34531427553	;
JU843	7073.64983218	6.86887083333	;
JU844	7078.80778234	4.98940657699	;
JU845	7114.16293465	7.54580105407	;