[TITLE]
Generated synthetic network;

[JUNCTIONS]
;ID	Elev	Demand	Pattern
JU2	7126.15550926	6.62232268519	;
JU3	7121.31727759	3.04208771161	;
JU4	7081.64973958	1.4753984375	;
JU5	7094.62483507	1.44758769097	;
JU6	7070.12691184	4.42130916088	;
JU7	7095.37476852	4.68443009259	;
JU8	7095.94583333	6.26730864198	;
JU9	7069.9	7.04503703704	;
JU10	7070.27297968	3.81971858925	;
JU11	7112.63976852	3.61883092593	;
JU12	7069.50114308	3.68211873218	;
JU13	7064.55201247	2.92977760062	;
JU14	7106.43841837	3.31288064626	;
JU15	7113.30138641	6.20962606895	;
JU16	7106.12778606	3.26957940996	;
JU17	7093.62313974	4.68911362783	;
JU18	7150.90625	2.8748125	;
JU19	7069.21611522	1.75739139784	;
JU20	7059.1037037	4.49031111111	;
JU21	7115.84553571	4.38758285714	;
JU22	7115.68362829	3.74026090943	;
JU23	7069.89023598	3.65377745949	;
JU24	7075.09190351	3.02539896798	;
JU25	7100.66042493	3.83310900298	;
JU26	7111.24811921	3.94384707755	;
JU27	7140.48148148	1.48184259259	;
JU28	7133.01192854	2.95605784045	;
JU29	7128.52586445	3.02203544674	;
JU30	7085.56340057	3.98461270219	;
JU31	7091.22665586	5.03044520152	;
JU32	7091.39495212	3.73794969455	;
JU33	7072.60452399	3.28586407778	;
JU34	7070.27556943	3.63227882532	;
JU35	7111.40221103	3.38379129272	;
JU36	7042.32459196	2.11569593734	;
JU37	7059.59308204	2.86650813277	;
JU38	7119.07256944	0.846559027778	;
JU39	7085.96218981	3.21911512289	;
JU40	7066.9958227	4.02035565501	;
JU41	7082.20219136	3.89606966548	;
JU42	7100.95192493	4.24890954806	;
JU43	7105.03307932	4.68298532037	;
JU44	7040.86265118	4.29710223395	;
JU45	7071.88903261	4.15607455586	;
JU46	7056.79526298	4.49698110418	;
JU47	7102.40524835	4.55122509226	;
JU48	7112.97436063	4.21271460199	;
JU49	7110.47650905	4.10066299678	;
JU50	7113.88463623	4.10408938738	;
JU51	7082.98602283	3.02980580836	;
JU52	7055.52112239	5.01561532684	;
JU53	7054.59343131	2.96863864936	;
JU54	7106.73590625	3.16708597746	;
JU55	7046.38091386	2.42268042394	;
JU56	7091.50222885	3.29306855926	;
JU58	7103.57033395	4.66847452283	;
JU59	7103.33869033	3.6550225	;
JU60	7067.56015625	2.483200625	;
JU61	7145.38757716	3.09032654321	;
JU62	7129.08238281	2.74757725694	;
JU63	7100.74814988	3.48824448165	;
JU64	7146.3693492	3.31952560378	;
JU65	7064.22307366	6.03374397284	;
JU66	7110.5523341	2.48440575434	;
JU67	7102.71574407	2.78892263299	;
JU68	7119.85069444	2.86235648148	;
JU69	7116.19501067	4.27151891859	;
JU70	7107.14465273	4.18146088284	;
JU71	7039.09404663	4.88997844531	;
JU72	7125.39930556	2.16834857253	;
JU73	7137.05743666	1.75831150479	;
JU74	7062.62643229	2.714771875	;
JU75	7078.98005401	3.04810579347	;
JU76	7141.52265432	1.37246874486	;
JU77	7042.35185185	2.41116666667	;
JU78	7108.92392179	3.28162490441	;
JU79	7067.75007716	4.76156489198	;
JU80	7072.77909122	3.00338566015	;
JU81	7045.02913504	1.79201881462	;
JU82	7074.41915979	2.46547002604	;
JU83	7055.79972627	3.11693661895	;
JU84	7031.13200338	2.01712857687	;
JU85	7091.42061193	1.71564655382	;
JU86	7079.06844473	4.35045678337	;
JU87	7083.73985436	3.5252371654	;
JU88	7080.88758423	1.91240549672	;
JU89	7061.3549729	4.91667123842	;
JU90	7091.3627275	2.22695669271	;
JU91	7154.3362029	5.41533141398	;
JU92	7063.61027778	104.407439537	;
JU93	7116.16970486	3.99577565586	;
JU94	7123.5	6.1145	;
JU95	7079.48497247	3.08089589074	;
JU96	7076.69531026	4.03172818909	;
JU97	7089.75848569	3.73317558343	;
JU98	7099.68988222	4.2108293209	;
JU100	7102.55155854	4.58425009284	;
JU101	7130.00286972	2.95685895513	;
JU102	7073.2221785	4.4098810571	;
JU103	7081.36845633	4.22155079636	;
JU104	7119.31624158	3.55387191037	;
JU105	7075.77339794	4.20528630371	;
JU106	7062.67445361	4.86231711227	;
JU107	7090.03292473	4.80809955181	;
JU108	7118.46794558	5.50974225571	;
JU109	7067.95932922	4.13122998354	;
JU110	7126.06090008	4.78075457602	;
JU111	7094.07407407	5.01295238095	;
JU112	7037.21151186	3.93876083912	;
JU113	7065.96228433	4.93518075545	;
JU114	7093.07675291	3.2878489088	;
JU115	7143.32666377	2.52368945216	;
JU116	7047.0656746	3.17558505291	;
JU117	7100.43021491	5.31014584362	;
JU118	7050.04806244	3.78089491504	;
JU119	7119.19255401	7.36903333333	;
JU120	7101.67030423	2.6133968254	;
JU121	7113.80786613	4.36734520779	;
JU122	7069.49434921	3.91626956733	;
JU123	7078.66611111	3.56335277778	;
JU124	7085.27944846	5.93524687629	;
JU125	7086.62620205	3.09350815146	;
JU126	7105.87282986	2.82463296296	;
JU127	7056.23400973	3.06522938155	;
JU128	7081.58099634	3.20880661736	;
JU129	7060.79010417	4.37503958333	;
JU130	7088.11392123	4.11831687902	;
JU131	7030.9296875	3.69305208333	;
JU132	7084.11876132	4.51705565329	;
JU133	7075.92828288	3.42054272134	;
JU134	7104.16955387	4.19480952765	;
JU135	7108.53275463	5.62443981481	;
JU136	7087.21780769	4.18326523629	;
JU137	7088.06095752	4.70268771966	;
JU138	7114.77949174	7.16118181544	;
JU139	7004.8125	5.4495	;
JU140	7148.396875	5.834025	;
JU141	7130.15281997	3.81371535012	;
JU142	7123.54867522	2.88094425183	;
JU143	7103.98491111	3.44233152778	;
JU144	7121.03835392	4.54251039037	;
JU145	7009.48157552	5.1648921658	;
JU146	7111.61392436	5.13977595777	;
JU148	7110.65970775	2.45885256076	;
JU149	7081.29888889	3.59122111111	;
JU150	7131.55737434	2.62353869048	;
JU151	7076.42847222	1.50642838542	;
JU152	7102.23515625	6.97458125	;
JU153	7093.23553241	4.42666435185	;
JU154	7054.36579424	2.34055101235	;
JU155	7087.46464339	3.75439878653	;
JU156	7055.52579766	2.84434313412	;
JU157	7077.29697135	3.32053407708	;
JU158	7082.86744551	2.82897400656	;
JU159	7084.33967206	4.08883340715	;
JU160	7105.96326389	5.53026388889	;
JU161	7146.00502206	1.99123609713	;
JU162	7140.92024036	6.37284054704	;
JU163	7103.15907183	3.04384000098	;
JU164	7103.96663336	5.78767990961	;
JU165	7090.14199509	5.41540607696	;
JU166	7054.07971694	4.85122036404	;
JU167	7085.96870735	3.30758476311	;
JU168	7082.45136463	3.54486268341	;
JU169	7055.4827386	4.70576323251	;
JU170	7078.72337804	2.6581743208	;
JU171	7089.32397531	5.12403061728	;
JU172	7055.20521599	4.11912936018	;
JU173	7055.28040133	3.78001626066	;
JU174	7095.37569444	3.99864126543	;
JU175	7064.17913194	4.55429434722	;
JU176	7050.79533608	3.64110329218	;
JU177	7081.99149378	4.09089594763	;
JU178	7105.76097884	2.05201289683	;
JU179	7064.43541667	3.95398361111	;
JU180	7075.65448857	4.14641543258	;
JU181	7055.23238259	4.91757781546	;
JU182	7032.76405285	4.48313819444	;
JU183	7064.35636574	5.1299412963	;
JU184	7033.3530191	4.63837194097	;
JU185	7041.57155919	4.28384686669	;
JU186	7051.97686838	4.58418359523	;
JU187	7146.50697043	1.68968870764	;
JU188	7101.37037037	3.67712345679	;
JU189	7059.83333333	3.46	;
JU190	7079.83293552	2.54005658517	;
JU191	7060.28877884	3.82183609274	;
JU192	7114.71134777	2.33559881468	;
JU193	7079.12490152	4.09248797891	;
JU194	7092.26918519	0.659422222222	;
JU195	7055.7265625	4.43771875	;
JU196	7074.49609004	1.82003785167	;
JU197	7071.75466146	1.95284129865	;
JU198	7099.36064241	2.13770575636	;
JU199	7098.66705556	4.72965648148	;
JU200	7110.87655556	3.37609444444	;
JU201	7083.50305623	2.09035317567	;
JU202	7025.13003201	4.7548943911	;
JU203	7145.41719547	1.81316959877	;
JU204	7069.64042078	5.73932405247	;
JU205	7068.46454004	5.82612437691	;
JU206	7068.84995574	2.69116163566	;
JU207	7066.67838803	2.63723381834	;
JU208	7082.62349339	4.35944526424	;
JU209	7087.05849243	3.87308658416	;
JU210	7074.45949468	4.23589538281	;
JU211	7065.4587524	2.35436822872	;
JU212	7145.32097211	5.44446959118	;
JU213	7099.54140017	3.25263669203	;
JU214	7058.24637789	4.70671232778	;
JU215	7100.66171875	4.10533767361	;
JU216	7126.43723679	1.75687159211	;
JU217	7043.1161393	4.0942001541	;
JU218	7086.69901379	4.28156461088	;
JU219	7134.25694444	2.76716092593	;
JU220	7071.6503421	3.60422570552	;
JU221	7102.92733172	3.55042413871	;
JU222	7069.21272786	4.55601276146	;
JU223	7105.04132569	3.86204989922	;
JU224	7100.76837148	6.16920133222	;
JU225	7094.20766534	3.73423418527	;
JU226	7070.62386667	4.91336478611	;
JU227	7083.88629823	3.74384268351	;
JU228	7063.97425891	4.28371557315	;
JU229	7067.95287908	3.80145286071	;
JU230	7078.59186921	3.58245199074	;
JU231	7071.25739913	5.03879961856	;
JU232	7047.95740974	2.87971802232	;
JU233	7074.54852315	3.82755131019	;
JU234	7084.81669179	6.5083716987	;
JU235	7100.43021491	5.31014584362	;
JU236	7076.49011549	4.10259590596	;
JU237	7116.60800412	3.75883078704	;
JU238	7116.90796296	4.69841608796	;
JU239	7082.29956446	4.44370996609	;
JU240	7116.73208333	4.64264583333	;
JU241	7099.33327121	4.72485092554	;
JU242	7071.12067901	4.14377160494	;
JU243	7092.57478909	3.02618488336	;
JU244	7099.33327121	4.72485092554	;
JU245	7084.52487963	4.65974699074	;
JU246	7095.72293117	3.84842316358	;
JU247	7146.68629557	7.21113932292	;
JU248	7140.47407407	2.62797407407	;
JU249	7130.94929527	2.74401668381	;
JU250	7095.48263889	4.93395138889	;
JU251	7099.60110918	4.17958036265	;
JU252	7093.51606014	2.07763175789	;
JU253	7102.57236111	5.133325	;
JU254	7058.54166667	4.85170138889	;
JU255	7058.837799	4.54646868248	;
JU256	7069.01223827	3.70290224454	;
JU257	7118.81295573	3.16899571759	;
JU258	7079.43833333	2.63847061728	;
JU259	7116.20593915	5.47092861636	;
JU260	7115.89266314	2.34594844577	;
JU261	7088.43771159	2.62800377242	;
JU262	7055.28155562	5.61718638671	;
JU263	7091.91007309	3.1475965056	;
JU264	7109.83986094	3.70565159707	;
JU265	7092.99875977	2.32705907959	;
JU266	7117.48148245	3.16319250766	;
JU267	7093.62988021	4.53114501389	;
JU268	7063.48989963	4.99050923557	;
JU269	7041.40567065	4.45765536201	;
JU270	7089.98822759	3.62755259992	;
JU271	7093.47679398	1.80099189815	;
JU272	7115.98333333	5.22130625	;
JU273	7089.0117037	4.35725362963	;
JU274	7111.61392436	5.13977595777	;
JU275	7076.97432772	5.57690134259	;
JU276	7090.68273424	3.72427931768	;
JU277	7078.88444444	3.86695422222	;
JU278	7080.765625	5.02178125	;
JU279	7082.73898049	3.29040190201	;
JU280	7059.51737384	4.57022484444	;
JU281	7091.05287726	4.58848192753	;
JU282	7142.97135417	5.21458506944	;
JU283	7070.62922816	5.06608951036	;
JU284	7125.93034783	5.29354414173	;
JU285	7072.01701389	1.71389019097	;
JU286	7042.15761994	2.14959393419	;
JU287	7034.06010417	2.32910020833	;
JU288	7099.42078972	2.67611836293	;
JU289	7073.21963301	4.96767840807	;
JU290	7120.16515192	3.84245456595	;
JU291	7073.16995732	5.92990531684	;
JU292	7084.3530116	5.65447933276	;
JU293	7147.00891879	1.38814131816	;
JU294	7166.85981481	5.03956790123	;
JU295	7080.8035952	2.89801490162	;
JU296	7084.25474151	3.58581695079	;
JU297	7106.10205311	2.74026553755	;
JU298	7091.3551829	4.76442847738	;
JU299	7074.72755203	4.18921790514	;
JU300	7164.95195856	4.13154855324	;
JU301	7186.79854986	5.63003247531	;
JU302	7154.49627637	6.44640565844	;
JU303	7159.57993677	5.97416884156	;
JU304	7085.28474691	6.6930044856	;
JU305	7068.0542037	6.86500055556	;
JU306	7122.13016574	3.25812045723	;
JU307	7129.23745257	6.06588747942	;
JU308	7100.74814988	3.48824448165	;
JU309	7090.41960184	4.57941708864	;
JU310	7102.84317753	5.71243895563	;
JU311	7076.91352744	3.99108214699	;
JU312	7107.48360312	3.52400654649	;
JU313	7129.72635188	5.4762880503	;
JU314	7148.46964161	7.2817700008	;
JU315	7059.92183348	4.06694664435	;
JU316	7090.87580821	4.17379891626	;
JU317	7116.13539662	3.07311872589	;
JU318	7093.10908307	3.78389052373	;
JU319	7078.26616588	4.24356681884	;
JU320	7051.71694126	3.9829203418	;
JU321	7104.99864005	4.36927864583	;
JU322	7088.18032444	2.22360181667	;
JU323	7111.07814137	4.81739422755	;
JU324	7097.48698291	3.98422633681	;
JU325	7109.12205622	5.50111621388	;
JU326	7112.91416763	6.18634880273	;
JU327	7092.21514585	3.73522750367	;
JU328	7159.57993677	5.97416884156	;
JU329	7142.07508681	5.88485474537	;
JU330	7129.23745257	6.06588747942	;
JU331	7111.86220087	4.19694530258	;
JU332	7083.30123727	3.27525847049	;
JU333	7154.93246991	6.32249134375	;
JU334	7063.27201646	5.12169382716	;
JU335	7070.04176161	2.11781844076	;
JU336	7102.49339436	3.87429590513	;
JU337	7060.95455247	4.59154645062	;
JU338	7098.71443256	4.72497756775	;
JU339	7076.86133787	4.94537188209	;
JU340	7103.93990275	4.60430248642	;
JU341	7090.50092651	3.6729720413	;
JU342	7110.84982133	5.76140386574	;
JU343	7086.30992348	1.25493692081	;
JU344	7121.24966001	2.19457296779	;
JU345	7056.21845618	4.25221754675	;
JU346	7130.97694444	4.62375	;
JU347	7092.66527778	2.35148611111	;
JU348	7115.92887731	2.23608110854	;
JU349	7057.52075543	2.74159597705	;
JU350	7071.45753038	0.950234895833	;
JU351	7062.59337921	3.47036922815	;
JU352	7079.27188079	3.69382296586	;
JU353	7023.72628637	3.17525984117	;
JU354	7081.171875	0.25746875	;
JU355	7058.74705338	1.72471003514	;
JU356	7097.8556445	3.3022966948	;
JU357	7062.73721322	3.17821646361	;
JU358	7074.90017361	3.17672372685	;
JU359	7069.20157154	2.85380696678	;
JU360	7064.47406467	4.66558945023	;
JU361	7082.2685415	4.23850869338	;
JU362	7089.58740596	3.35318020526	;
JU363	7224.54228241	5.1544224537	;
JU364	7063.22320715	3.44983615746	;
JU365	7111.62537222	5.44024652014	;
JU366	7091.0306366	5.73100255988	;
JU367	7047.43447702	5.23114340535	;
JU368	7103.19328714	4.01744667344	;
JU369	7128.65824588	3.31852825103	;
JU370	7113.61112368	3.37983033339	;
JU371	7081.96907263	3.03306140391	;
JU372	7072.09102186	2.9737370664	;
JU373	7078.14694959	3.76402819444	;
JU374	7075.14644182	4.0408251425	;
JU375	7079.36963306	2.2786641118	;
JU376	7071.7485119	6.36627380952	;
JU377	7080.56098502	4.85638960927	;
JU378	7086.24006076	5.40116221065	;
JU379	7083.6255787	4.1485162037	;
JU380	7069.01095679	2.96286234568	;
JU381	7055.52916667	3.9093125	;
JU382	7132.19573688	4.56685374228	;
JU383	7078.57723116	3.13954524402	;
JU384	7124.86218765	2.25994562469	;
JU385	7088.9056159	2.7548672626	;
JU386	7074.66071429	0.938321428571	;
JU387	7073.16299154	1.81249297554	;
JU388	7136.15340334	2.32323194159	;
JU389	7097.89967361	3.04163894259	;
JU390	7083.25407465	2.32335151172	;
JU391	7078.8990933	3.80756841362	;
JU392	7086.02659558	4.88957319557	;
JU393	7100.69799032	3.87717971237	;
JU394	7101.3037037	5.872225	;
JU395	7081.43074972	4.19580673826	;
JU396	7099.06497807	4.44532415181	;
JU397	7085.21209345	3.33013637603	;
JU398	7079.9731269	4.28161413991	;
JU399	7074.33082147	3.00195318411	;
JU400	7091.72415139	2.9458519852	;
JU401	7074.48823045	3.93472393004	;
JU402	7068.21909722	2.58642083333	;
JU403	7063.64671715	5.53211512967	;
JU404	7103.51144658	3.33055500833	;
JU405	7097.61051114	4.33897021417	;
JU406	7068.46927646	3.65643280607	;
JU407	7081.91055207	2.98529047062	;
JU408	7086.30545679	4.25000283951	;
JU409	7081.86107615	3.57522608989	;
JU410	7115.51400463	3.90487608025	;
JU411	7116.00520833	4.56740104167	;
JU412	7094.07417711	4.57951216561	;
JU413	7061.77911892	3.88775484664	;
JU414	7122.64331235	5.05004453371	;
JU415	7142.14490476	3.48707888143	;
JU416	7103.80237185	3.34388748075	;
JU417	7069.024625	4.49491666667	;
JU418	7098.77355195	4.23789592507	;
JU419	7089.78475683	2.52572412228	;
JU420	7087.84451562	4.265927375	;
JU421	7092.27777778	4.64642222222	;
JU422	7064.85046103	4.36591382358	;
JU423	7061.50177903	4.17937309799	;
JU424	7075.48865492	6.13752336048	;
JU425	7082.80591483	4.51597532435	;
JU426	7065.0260272	4.94357631944	;
JU427	7062.50011574	4.56601228241	;
JU428	7093.46174045	3.99844175251	;
JU429	7077.71484537	3.4174270679	;
JU430	7098.0912375	5.40515183098	;
JU431	7078.22586913	6.26380261787	;
JU432	7063.55851731	4.58911716539	;
JU433	7038.04512775	3.8492503777	;
JU434	7097.90353637	4.58754208322	;
JU435	7101.07466925	3.3594662664	;
JU436	7103.82527778	1.87355740741	;
JU437	7089.20400738	2.39204754126	;
JU438	6999.67916667	1.50825	;
JU439	7145.45181548	3.28004543269	;
JU440	7078.04069251	5.73283608796	;
JU441	7092.32656452	3.18103258174	;
JU442	7138.57277626	4.88484346086	;
JU443	7078.74259983	3.00906523437	;
JU444	7149.96022946	5.81876062412	;
JU445	7080.64631809	3.56769461213	;
JU446	7094.96657986	4.00648541667	;
JU447	7073.98498017	2.02550534695	;
JU448	7046.16879753	3.40316262821	;
JU449	7071.77286932	3.78636703249	;
JU450	7051.59287751	4.36751635535	;
JU451	7078.40209259	3.17197735185	;
JU452	7086.19917033	4.2317593752	;
JU453	7092.90095519	4.84706346318	;
JU454	7072.1891429	3.97882237691	;
JU455	7073.14935494	2.73609433813	;
JU456	7107.64473151	7.17732905864	;
JU457	7073.2530166	3.87606024634	;
JU458	7074.56763539	1.95911374904	;
JU459	7103.95303523	4.40442984212	;
JU460	7108.69131047	3.32847875223	;
JU461	7078.60238197	1.69516033665	;
JU462	7088.06152243	4.57882770864	;
JU463	7097.74514071	5.1338146232	;
JU464	7089.38612875	3.93683746594	;
JU465	7087.3232788	4.08611016962	;
JU466	7070.96873815	4.30836532167	;
JU467	7087.89974831	3.40831971311	;
JU468	7028.89966342	4.26305398918	;
JU469	7063.05206173	5.99060335802	;
JU470	7091.73226273	0.597468344907	;
JU471	7080.49081726	2.86679932527	;
JU472	7049.49043451	3.1639884211	;
JU473	7048.34991544	3.03791575907	;
JU474	7044.28265444	2.56909952185	;
JU475	7044.69308025	6.60498496296	;
JU476	7093.65280277	3.38163423349	;
JU477	7145.64054784	4.62958888889	;
JU478	7040.05808614	3.99563985615	;
JU479	7108.21513889	4.57290416667	;
JU480	7109.26259259	1.95001481481	;
JU481	7086.27161458	4.16829513889	;
JU482	7107.98521532	4.37056792503	;
JU483	7112.92701029	2.4075588606	;
JU484	7108.10504567	4.14974279626	;
JU485	7106.17820167	4.48852297255	;
JU486	7106.2043824	4.58847627082	;
JU487	7106.17820167	4.48852297255	;
JU488	7119.05744991	4.25606215479	;
JU489	7103.18173526	3.80781908883	;
JU490	7064.32342831	3.28652612801	;
JU491	7089.70682549	3.35650198045	;
JU492	7131.63616189	5.82043137742	;
JU493	7118.74643598	5.88252224036	;
JU494	7179.31566872	3.25514599108	;
JU495	7076.51667232	3.6077657807	;
JU496	7106.12287175	4.80216430289	;
JU497	7105.60758171	5.31595622552	;
JU498	7112.54923342	4.30742184134	;
JU499	7107.52131389	4.09085887323	;
JU500	7055.99118127	6.5468462724	;
JU501	7106.87393261	2.25242959319	;
JU502	7103.56652006	2.5248247698	;
JU503	7084.05179985	4.85947147403	;
JU504	7120.16237127	4.27843361986	;
JU505	7100.49320034	2.48172414217	;
JU506	7083.76090036	3.28736316656	;
JU507	7097.80522854	3.24952806421	;
JU508	7051.89288802	3.27324536462	;
JU509	7113.53261385	3.02807449146	;
JU510	7069.8815015	2.48359748908	;
JU511	7087.59598561	4.84428855293	;
JU512	7060.91424698	5.09650511804	;
JU513	7073.89685828	2.48150296982	;
JU514	7078.17922877	4.34082589424	;
JU515	7102.23515625	6.97458125	;
JU516	7085.78104384	3.60214424913	;
JU517	7103.39793976	5.267559876	;
JU518	7098.96730324	4.8415150463	;
JU519	7095.27550486	3.4889114187	;
JU520	7078.97995657	1.41641016927	;
JU521	7132.04898857	5.17390837504	;
JU522	7075.72206453	2.32467853941	;
JU523	7099.70365364	31.0835005742	;
JU524	7137.7370657	2.20780444502	;
JU525	7130.13223655	2.8774464768	;
JU526	7116.87546754	4.0621533822	;
JU527	7108.047694	3.88789481922	;
JU528	7115.32445747	3.76320259452	;
JU529	7105.02488426	2.54275	;
JU530	7076.98154321	4.23806407407	;
JU531	7107.03472222	3.99152777778	;
JU532	7062.06110238	2.46736114051	;
JU533	7103.75241196	4.16691379283	;
JU534	7042.49931912	6.68858798828	;
JU535	7093.07675291	3.2878489088	;
JU536	7107.03472222	3.99152777778	;
JU537	7057.22678743	4.90853285021	;
JU538	7095.91174494	2.15014628241	;
JU539	7068.1706939	4.84249037101	;
JU540	7079.66284728	3.78616690548	;
JU541	7100.63216885	3.58021733218	;
JU542	7108.33972954	6.33342168896	;
JU543	7085.93942949	4.67667163074	;
JU544	7079.25717435	3.39893464198	;
JU545	7080.11790383	4.19304543524	;
JU546	7081.57004734	5.58413452781	;
JU547	7129.96114144	2.50383912209	;
JU548	7107.01489521	2.60101809635	;
JU549	7076.36039081	4.23175459566	;
JU550	7060.33074193	2.6966571056	;
JU551	7082.7384796	3.44818452888	;
JU552	7076.31189622	3.37951777577	;
JU553	7100.73644044	3.79947350785	;
JU554	7096.56084828	2.97974039111	;
JU555	7096.5741801	4.16782472513	;
JU556	7082.13413623	4.01693587483	;
JU557	7118.46028241	5.15620398044	;
JU558	7090.09583333	4.95131944444	;
JU559	7083.01357765	4.03257204454	;
JU560	7102.26852834	2.764074468	;
JU561	7103.52743284	2.85981115199	;
JU562	7082.68116319	6.68442934028	;
JU563	7052.06941551	3.30051990741	;
JU564	7122.50623312	2.80941848798	;
JU565	7085.72899306	2.86703888889	;
JU566	7112.20233957	3.25855447402	;
JU567	7085.8089546	6.40306042207	;
JU568	7176.075	6.99982777778	;
JU569	7095.7591	5.47537048333	;
JU570	7113.88463623	4.10408938738	;
JU571	7114.02610806	3.88426447225	;
JU572	7137.86062667	7.05457552611	;
JU573	7098.63670451	3.98550808348	;
JU574	7070.62386667	4.91336478611	;
JU575	7124.95101895	4.60012838443	;
JU576	7098.60672232	3.44957429354	;
JU577	7096.55396674	2.35582917988	;
JU578	7076.10357341	4.27903602185	;
JU579	7070.29446383	4.12688135656	;
JU580	7102.75100051	4.17029449588	;
JU581	7086.19275	3.38655185185	;
JU582	7056.64662622	4.22276841476	;
JU583	7060.69833333	3.15572888889	;
JU584	7129.12340016	5.43604344194	;
JU585	7120.65921448	2.42840402394	;
JU586	7113.07951646	4.23682740741	;
JU587	7061.24109962	1.71023763069	;
JU588	7117.74969487	3.94696226521	;
JU589	7099.41943531	2.33325247512	;
JU590	7124.81887953	3.52758208212	;
JU591	7001.87109715	4.59114338036	;
JU592	7020.89699074	3.12901427469	;
JU593	7083.83027742	3.24033823074	;
JU594	7047.88580247	4.45831378601	;
JU595	7106.97530864	3.66659259259	;
JU596	7107.11410262	3.1411920571	;
JU597	7128.1941318	4.7846126129	;
JU598	7058.20293333	3.53193777778	;
JU599	7109.53844522	2.61898013705	;
JU600	7079.5086439	5.61942702836	;
JU601	7068.94896667	6.04950640905	;
JU602	7089.87265944	1.78663323174	;
JU603	7087.86041535	2.24364599454	;
JU604	7092.69752242	2.94205189887	;
JU605	7128.8875	3.793625	;
JU606	7116.94162917	3.87783822384	;
JU607	7098.61863426	3.41823668981	;
JU608	7101.80427225	3.22128751063	;
JU609	7081.2499465	3.3719037664	;
JU610	7128.59593608	2.33990333759	;
JU611	7107.7912037	5.37605740741	;
JU612	7110.52441936	3.01974288072	;
JU613	7080.28458076	3.59057161883	;
JU614	7095.49647061	13.5959282117	;
JU615	7097.17018243	3.28943691461	;
JU616	7123.10421021	3.82190142353	;
JU617	7130.52803868	3.97995131102	;
JU618	7168.95105106	6.93710105474	;
JU619	7125.68226822	4.1062469833	;
JU620	7085.87308301	3.53216480669	;
JU621	7133.37585797	5.08229322641	;
JU622	7120.17283951	4.10419958848	;
JU623	7069.80702442	4.07600896991	;
JU624	7103.03035993	3.61163561147	;
JU625	7083.84496918	2.88321195392	;
JU626	7075.93100559	3.53374800818	;
JU627	7062.10259432	4.56227626599	;
JU628	7080.06317947	3.3423049243	;
JU629	7058.36312211	5.85946715756	;
JU630	7121.25981224	3.90181946159	;
JU631	7126.17690972	0.552623263889	;
JU632	7111.04821978	3.11590646571	;
JU633	7029.3740078	4.73958254647	;
JU634	7050.87451808	3.00062577116	;
JU635	7082.98602283	3.02980580836	;
JU636	7080.29624507	2.7102225084	;
JU637	7074.86949846	2.81343854938	;
JU638	7075.30846338	3.54581239479	;
JU639	7075.5973302	3.3460498288	;
JU640	7067.84794271	2.71529963241	;
JU641	7137.36232396	5.67335476312	;
JU642	7104.56416821	3.71912860031	;
JU643	7086.47905885	3.74184836068	;
JU644	7088.72959786	3.16395359309	;
JU645	7083.39392759	2.4679635068	;
JU646	7138.79639183	1.99121992945	;
JU647	7096.96716818	4.38810581882	;
JU648	7105.91532687	4.60011815223	;
JU649	7104.74087683	3.52469828622	;
JU650	7094.70312346	4.5778705454	;
JU651	7125.52428115	3.48290129833	;
JU652	7072.14454733	5.10934182099	;
JU653	7083.80451543	5.40824889815	;
JU654	7093.90781606	4.94223084025	;
JU655	7084.13705512	3.34622834925	;
JU656	7166.84698056	6.29871121914	;
JU657	7057.9821504	6.4317322045	;
JU658	7093.64133188	1.78704267811	;
JU659	7106.76946879	3.5498632399	;
JU660	7098.8164131	5.4747781762	;
JU661	7083.59015571	2.8185345034	;
JU662	7102.3116862	4.05501315104	;
JU663	7122.90028807	4.46802145062	;
JU664	7100.01992429	3.8705480517	;
JU665	7091.35276135	2.39459372816	;
JU666	7068.07930816	1.86355399306	;
JU667	7117.31801194	3.78242166096	;
JU668	7033.98987269	5.03444009838	;
JU669	7107.51701875	5.18890683128	;
JU670	7107.05507716	4.02643	;
JU671	7114.97367975	5.39653417789	;
JU672	7083.93956977	3.65161407118	;
JU673	7096.4325983	3.70118656531	;
JU674	7071.94622074	4.51752396219	;
JU675	7090.3711027	3.20737064293	;
JU676	7073.70216488	3.31836820683	;
JU677	7061.89128501	3.34041722282	;
JU678	7081.94888245	3.46319456771	;
JU679	7075.28960265	3.31284660981	;
JU680	7101.73557384	3.87711592155	;
JU681	7099.87494347	3.09357554859	;
JU682	7096.91554364	3.16008617711	;
JU683	7105.46348002	3.46847866137	;
JU684	7101.51816689	4.66244345097	;
JU685	7072.59178872	3.0367903867	;
JU686	7073.60462481	3.11309393519	;
JU687	7106.33333333	2.93614814815	;
JU688	7065.94224899	2.69581571321	;
JU689	7098.66697016	6.30417147119	;
JU690	7074.08077752	0.441777324519	;
JU691	7043.33644127	3.37200930084	;
JU692	7074.80667193	4.19602018636	;
JU693	7075.93100559	3.53374800818	;
JU694	7070.69623192	2.42349981337	;
JU695	7067.02094543	3.42608254287	;
JU696	7060.9688668	5.77862801712	;
JU697	7089.98094803	2.5949589291	;
JU698	7039.23103485	3.68437584573	;
JU699	7066.36657675	3.15284714708	;
JU700	7064.19974191	2.67766237356	;
JU701	7061.86259281	2.54308473983	;
JU702	7100.51027402	3.62706035724	;
JU703	7067.86923238	2.68838936491	;
JU704	7071.44940814	3.24046698284	;
JU705	7074.91474002	3.26453450222	;
JU706	7069.24392609	3.61895020172	;
JU707	7070.93695651	3.60466658629	;
JU708	7103.87376389	4.18717772222	;
JU709	7087.65115122	3.99536230737	;
JU710	7070.55774609	4.40849632757	;
JU711	7097.24217941	3.22750957264	;
JU712	7145.41719547	1.81316959877	;
JU713	7110.50277277	3.90271173729	;
JU714	7073.58210643	3.84803059626	;
JU715	7073.4417016	3.19561167061	;
JU716	7098.79902464	3.87437124807	;
JU717	7077.05466821	3.53925324074	;
JU718	7129.79649083	1.75170263529	;
JU719	7136.5625	4.50341666667	;
JU720	7130.38640581	4.85393584041	;
JU721	7090.17763889	4.15691583333	;
JU722	7060.21817501	4.50185444266	;
JU723	7137.88101505	2.59817633333	;
JU724	7074.19874102	2.38992663725	;
JU725	7114.60888436	3.49162179861	;
JU726	7076.79458333	6.68657583333	;
JU727	7102.29522208	3.89555818866	;
JU728	7073.32291667	3.41825520833	;
JU729	7087.10228467	1.62266413002	;
JU730	7086.21227709	3.2853984225	;
JU731	7158.21527778	3.33812037037	;
JU732	7077.29697135	3.32053407708	;
JU733	7080.36878329	7.03433264886	;
JU734	7114.33274441	2.63808314291	;
JU735	7046.68489712	1.43149316872	;
JU736	7042.33609664	2.59721257025	;
JU737	7103.55212963	4.06493777778	;
JU738	7107.02343422	4.09774056481	;
JU739	7106.07330267	4.09968276253	;
JU740	7089.15964236	4.75331113562	;
JU741	7082.09606918	5.72927321003	;
JU742	7092.14814815	4.152	;
JU743	7093.7638539	4.12418726146	;
JU744	7127.76628472	5.0987620463	;
JU745	7069.47186813	3.03246535429	;
JU746	7088.7471301	5.23869633999	;
JU747	7068.56481481	4.19646296296	;
JU748	7081.56655093	3.87805823045	;
JU749	7105.87413194	2.69964755401	;
JU750	7069.54314558	4.14799260545	;
JU751	7067.30989583	3.19429079861	;
JU752	7052.24317558	2.94604878258	;
JU753	7060.20804005	3.88017002351	;
JU754	7069.16563657	4.16961430363	;
JU755	7067.28556199	4.26847092014	;
JU756	7067.35305556	92.225582963	;
JU757	7067.75882986	3.54191702778	;
JU758	7126.71507905	2.07289267913	;
JU759	7133.04513077	1.83106784398	;
JU760	7087.31318339	5.62115730435	;
JU761	7084.43114431	2.57845314308	;
JU762	7077.87116199	3.45148346598	;
JU763	7082.56872891	3.78965131019	;
JU764	7112.91416763	6.18634880273	;
JU765	7166.98698495	4.10031969522	;
JU766	7142.97872467	4.02191813181	;
JU767	7129.52555556	2.85636388889	;
JU768	7122.34454637	3.40857251362	;
JU769	7119.34791667	5.22961111111	;
JU770	7111.17954936	4.93068234313	;
JU771	7049.42378472	2.43507013889	;
JU772	7096.45216049	1.59250180041	;
JU773	7072.44066358	2.62212361111	;
JU774	7068.99722222	2.69365555556	;
JU775	7071.62200424	3.15489059028	;
JU776	7132.77599407	4.02165896483	;
JU777	7087.6055384	1.88305238385	;
JU778	7101.95622807	2.83597704315	;
JU779	7048.14680879	6.59042145363	;
JU780	7078.40209259	3.17197735185	;
JU781	7107.14465273	4.18146088284	;
JU782	7106.54027202	5.39730996013	;
JU783	7068.92199174	3.16495881867	;
JU784	7087.90706685	3.65483438051	;
JU785	7079.70449862	3.41255339598	;
JU786	7118.3633642	0.866087191358	;
JU787	7043.1161393	4.0942001541	;
JU788	7110.52233591	3.40680684118	;
JU789	7067.875	3.16275	;
JU790	7060.6098628	2.22867000575	;
JU791	7103.95303523	4.40442984212	;
JU792	7099.30159687	2.7509708918	;
JU793	7119.8353	3.79364942778	;
JU794	7086.5377485	5.06985208329	;
JU795	7072.14454733	5.10934182099	;
JU796	7028.48656207	2.92829194102	;
JU797	7060.65313438	4.76727838786	;
JU798	7061.78909529	3.32394986068	;
JU799	7081.18415451	5.15055394547	;
JU800	7074.7560934	5.36131366127	;
JU801	7100.02534398	3.4880924537	;
JU802	7068.19970372	4.51344403961	;
JU803	7085.03116292	5.3870276258	;
JU804	7105.65018639	5.66573835734	;
JU805	7054.53402228	3.04266359111	;
JU806	7089.86146557	3.55904499421	;
JU807	7067.03009664	4.7897835655	;
JU808	7059.85071022	5.09842042544	;
JU809	7085.3668669	4.60352124074	;
JU810	7137.65665509	3.87912118056	;
JU811	7105.91683309	4.40284294264	;
JU812	7097.84917123	2.17982563117	;
JU813	7092.82344838	4.40393471667	;
JU814	7111.07218787	5.57504105818	;
JU815	7051.1150239	2.66847098001	;
JU816	7102.35815693	3.03729018017	;
JU817	7114.01055625	3.8000276406	;
JU818	7061.85890141	3.83013118936	;
JU819	7070.47776243	3.59175517113	;
JU820	7023.72628637	3.17525984117	;
JU821	7075.22507915	3.77116710937	;
JU822	7035.05137442	4.48322980324	;
JU823	7064.19974191	2.67766237356	;
JU824	7103.39164152	4.10016108071	;
JU825	7064.85526776	2.62919218612	;
JU826	7099.68988222	4.2108293209	;
JU827	7080.40898869	7.09470647817	;
JU828	7057.54465868	2.31633128582	;
JU829	7143.99858333	7.88407541667	;
JU830	7088.86381567	4.23194085412	;
JU831	7033.37437307	3.069699393	;
JU832	7112.95905671	4.17679211516	;
JU833	7069.54314558	4.14799260545	;
JU834	7059.21744792	3.09663498264	;
JU835	7105.87413194	2.69964755401	;
JU836	7136.8834846	4.23733548163	;
JU837	7042.63868116	4.01995150421	;
JU838	7140.80059619	1.93775801681	;
JU839	7061.76022082	3.8735207172	;
JU840	7097.93051927	2.67083810777	;
JU841	7043.03125	3.39165625	;
JU842	7126.67475474	4.69731861772	;
JU843	7076.76435693	3.21191682102	;
JU844	7098.33650144	3.16919592663	;
JU845	7114.88142505	5.99931033947	;
JU846	7131.74448351	3.84286167245	;
JU847	7085.23425146	4.41163208085	;