[TITLE]
Generated synthetic network;

[JUNCTIONS]
;ID	Elev	Demand	Pattern
JU1	7103.78674673	3.185972358	;
JU2	7074.10796877	2.36572464277	;
JU3	7121.07272515	4.21990690166	;
JU4	7091.62966685	4.26957579983	;
JU5	7116.6194992	5.45290638419	;
JU6	7069.46750579	2.89748368056	;
JU7	7060.04120833	2.89425813889	;
JU8	7060.73797569	2.62824599306	;
JU9	7061.83506944	1.47362430556	;
JU10	7078.28634259	3.65130462963	;
JU11	7081.97525835	3.28164755434	;
JU12	7082.52901813	2.98050241512	;
JU13	7058.32186278	3.35787625514	;
JU14	7081.3701169	2.3752448125	;
JU15	7096.42523373	4.71820047754	;
JU16	7165.72068866	5.53878006366	;
JU18	7078.51513525	5.74755843715	;
JU19	7066.54213462	3.61741123876	;
JU20	7099.66536155	5.20239643764	;
JU21	7079.41964699	5.34795916924	;
JU22	7076.93611433	4.86777485854	;
JU23	7069.61585377	5.22364734399	;
JU24	7074.34412413	4.63271666375	;
JU25	7060.15394664	4.07157472592	;
JU26	7056.38470399	4.95091723874	;
JU27	7057.02973746	4.38358465606	;
JU28	7074.96305803	5.1193596756	;
JU29	7068.54080298	5.52587954524	;
JU30	7056.36378292	4.80123928975	;
JU31	7053.66174561	3.98569434211	;
JU32	7038.09914816	4.43400770809	;
JU33	7049.12843826	5.14227733015	;
JU34	7068.62899306	3.79445648148	;
JU35	7053.63132329	3.88314954192	;
JU36	7078.86260348	2.68796162643	;
JU37	7087.39047639	5.11224735278	;
JU38	7037.70023148	2.10888564815	;
JU39	7075.11588542	4.89017404514	;
JU40	7090.54722222	3.85857508102	;
JU41	7116.59441421	6.69545814528	;
JU42	7085.46560533	3.28440154033	;
JU43	7066.02126018	5.31835512173	;
JU44	7094.75756063	5.63900077269	;
JU45	7098.90900169	5.8802392851	;
JU46	7111.67737269	4.91344754051	;
JU47	7093.48397259	4.64305978384	;
JU48	7097.42617168	3.90036094903	;
JU49	7063.36192476	4.05295243363	;
JU50	7076.46694297	5.17581981619	;
JU51	7082.58863698	3.37529174485	;
JU52	7061.21098179	3.96522698302	;
JU53	7052.78515625	2.02100748698	;
JU54	7104.45339506	5.66943842593	;
JU55	7091.75810185	6.30717037037	;
JU56	7100.70373457	7.10263759259	;
JU57	7127.9519041	3.00548446663	;
JU58	7114.06631721	4.52329508782	;
JU59	7080.63292954	5.97689155428	;
JU60	7069.46102897	3.44689574588	;
JU61	7088.86509357	4.60929297031	;
JU62	7146.94461022	6.32384444066	;
JU63	7077.21292906	5.00230065869	;
JU64	7072.55237847	3.36516348958	;
JU65	7101.26131687	5.40574485597	;
JU66	7099.64756944	1.28852777778	;
JU67	7091.9901659	4.3118524537	;
JU68	7096.11204531	4.78391953429	;
JU69	7086.12550044	4.27980896654	;
JU70	7055.01945966	4.52789267829	;
JU71	7061.8656585	2.9474220934	;
JU72	7086.89147505	4.387421857	;
JU74	7052.44110725	4.19380564236	;
JU75	7084.22376543	3.68344444444	;
JU76	7042.19259259	4.62326666667	;
JU77	7106.80266204	6.02589814815	;
JU78	7063.05555556	5.86281481481	;
JU79	7041.95324074	3.13330146605	;
JU80	7064.28703704	2.40631481481	;
JU81	7099.46875	3.41820416667	;
JU82	7081.70508295	3.94386972094	;
JU83	7083.62161024	5.77615845848	;
JU84	7025.95385417	4.38902302951	;
JU85	7043.83918077	6.64666244448	;
JU86	7056.21023872	6.83107165292	;
JU87	7074.1401033	3.29078849322	;
JU88	7085.246875	6.35765833333	;
JU89	7065.85330536	6.7287270888	;
JU90	7073.60715181	6.00002711066	;
JU91	7149.25052083	4.72013020833	;
JU92	7096.85633078	5.02978482866	;
JU93	7094.25719474	5.82780162766	;
JU94	7044.29588542	3.12374836806	;
JU95	7098.62471944	4.94054298472	;
JU96	7101.57705422	3.73326123283	;
JU97	7159.46850553	6.74048196624	;
JU98	7107.09500672	5.9759665029	;
JU99	7066.22891223	4.59093944288	;
JU100	7054.97869767	2.35389011427	;
JU101	7060.15394664	4.07157472592	;
JU102	7048.10542695	5.80413837449	;
JU103	7080.95246238	4.93181619213	;
JU104	7063.24380787	2.55272777778	;
JU105	7020.23869599	5.34167037037	;
JU106	7071.00378756	2.99745317224	;
JU107	7048.74173619	4.1495824279	;
JU108	7108.29166667	2.23986111111	;
JU109	7100.18709307	4.27418790055	;
JU110	7093.82831723	1.94671662326	;
JU111	7056.63004847	4.9392882229	;
JU112	7066.54648293	5.89909987703	;
JU113	7092.80278098	3.95185190214	;
JU114	7110.06925235	5.53289932854	;
JU115	7109.10624448	2.06111165958	;
JU116	7114.15307673	3.50727168864	;
JU117	7032.69618833	3.06564561086	;
JU118	7060.16473765	2.56419187243	;
JU119	7124.27251323	3.69284566138	;
JU120	7088.47198302	4.24462776235	;
JU121	7063.61041667	4.0721875	;
JU122	7072.77557747	3.64889065679	;
JU123	7102.69776312	3.87221854321	;
JU124	7129.86979167	5.6016875	;
JU125	7090.31373059	5.24876705247	;
JU126	7120.28375772	4.23036033951	;
JU127	7104.7162519	4.19693864866	;
JU128	7113.70133774	6.47008757099	;
JU129	7094.3945261	3.33229486305	;
JU130	7093.39724579	6.63560932809	;
JU131	7095.60316667	4.66214722222	;
JU132	7104.25842335	3.4961477945	;
JU133	7147.87202201	3.01700884606	;
JU134	7118.93813474	5.73185386445	;
JU135	7085.391725	4.50152694444	;
JU136	7060.99665638	4.11954783951	;
JU137	7076.18956427	7.3370667141	;
JU138	7072.41666667	5.11433333333	;
JU139	7063.33646776	3.93872302997	;
JU140	7049.75799572	4.69951116511	;
JU141	7087.40766937	4.3653156256	;
JU142	7066.72034445	4.35330554591	;
JU143	7059.27997079	3.34073463771	;
JU144	7047.5654119	4.09951920332	;
JU145	7051.52325615	4.85831997339	;
JU146	7052.43654833	4.72863573544	;
JU147	7067.81901042	4.79101417824	;
JU148	7104.75985731	3.16273382189	;
JU149	7065.29059873	4.69120006068	;
JU150	7073.92673611	4.48379166667	;
JU151	7072.44061667	5.1481668	;
JU152	7103.99267748	6.1864685545	;
JU153	7131.52480159	4.26489814815	;
JU155	7065.15861111	3.25870728395	;
JU156	7105.53467303	3.85196208189	;
JU157	7091.63400548	5.71037884612	;
JU158	7136.77667101	1.67926646412	;
JU159	7085.01420993	5.34820637511	;
JU160	7041.71228896	5.59550992621	;
JU161	7098.31942837	4.08980925283	;
JU162	7071.82669434	4.30611822162	;
JU163	7113.78390775	3.89441186557	;
JU164	7172.20942708	6.47307788194	;
JU165	7092.84503445	5.63210169397	;
JU166	7048.45138889	6.65880555556	;
JU167	7082.2087872	5.38840124806	;
JU168	7057.81177294	3.4382438014	;
JU169	7114.20354712	4.18791258954	;
JU170	7048.04298611	4.48072717593	;
JU171	7126.28939712	6.38217054938	;
JU172	7096.77384259	3.75456944444	;
JU173	7104.76028379	4.80387831761	;
JU174	7090.85503472	5.66075434028	;
JU175	7109.43791171	4.22496726852	;
JU176	7096.88606528	2.27295556667	;
JU177	7104.08315972	1.88048611111	;
JU178	7094.8531098	5.71116815657	;
JU179	7093.29570397	5.5093567828	;
JU180	7129.23176599	4.10097862157	;
JU181	7075.51202395	6.06984655912	;
JU183	7160.48456414	2.44841187704	;
JU184	7088.64785053	4.5169484274	;
JU185	7098.60611398	3.03693421843	;
JU186	7100.71110287	4.41083099902	;
JU187	7099.58874486	6.06195568803	;
JU188	7075.33420252	4.72827228551	;
JU189	7088.43638591	4.87619558899	;
JU190	7054.07664569	6.13455633681	;
JU191	7051.65417524	5.89590757888	;
JU192	7118.74424236	4.75869255279	;
JU193	7045.91835938	5.19742604167	;
JU194	7052.52452867	5.20092104854	;
JU195	7048.75501664	3.65134461806	;
JU196	7082.47201646	6.76915082305	;
JU197	7061.09089506	5.58944817387	;
JU198	7067.6	7.22478518519	;
JU199	7074.93954621	6.6645700791	;
JU200	7048.75501664	3.65134461806	;
JU201	7051.60604169	4.25840016115	;
JU202	7107.99517313	5.91674376029	;
JU203	7081.14213177	5.73187011635	;
JU204	7131.26672593	2.49926011852	;
JU205	7092.77864583	1.82428645833	;
JU206	7084.30602527	3.10788469522	;
JU207	7113.74116255	5.01511851337	;
JU208	7106.41927083	4.42262847222	;
JU209	7065.5	6.7795	;
JU210	7063.38291522	4.49943781829	;
JU211	7094.53280382	5.59520607639	;
JU212	7118.4375	5.40075	;
JU213	7054.97292607	5.415925	;
JU214	7068.00688218	5.80587316764	;
JU215	7092.26285783	4.93439127701	;
JU216	7058.3287037	2.38182407407	;
JU217	7112.62955584	5.23936819444	;
JU218	7093.32564043	4.30435580247	;
JU219	7085.33692708	5.01490407407	;
JU220	7100.379505	3.65427405556	;
JU221	7110.28653689	3.93870714901	;
JU222	7101.36712352	4.46968070023	;
JU223	7080.38382124	5.01233947688	;
JU224	7050.26212253	3.93183310768	;
JU225	7037.36617785	5.44282038709	;
JU226	7071.54013667	3.63558913487	;
JU227	7085.265625	3.4059375	;
JU228	7047.97091221	4.78665294803	;
JU229	7045.06314718	4.0038986304	;
JU230	7074.44871293	3.83677043094	;
JU231	7081.77048424	3.28047268893	;
JU232	7091.14282372	6.36599050944	;
JU233	7086.77186784	6.16175626307	;
JU234	7093.88508867	5.62869834671	;
JU235	7098.72306816	6.00176630015	;
JU236	7069.3079919	4.46429321373	;
JU237	7097.86144764	3.73237076469	;
JU238	7113.18908614	2.26391353106	;
JU239	7091.13001543	5.91203549383	;
JU240	7092.18062772	5.10855830716	;
JU241	7085.71239699	2.93117614583	;
JU242	7095.58360627	4.51589053369	;
JU243	7100.75246791	4.19304924455	;
JU244	7080.41111111	3.56088888889	;
JU245	7063.21715856	3.20774129051	;
JU246	7084.60677083	6.54657638889	;
JU247	7088.08180773	2.14651370587	;
JU248	7092.57406765	4.75134759689	;
JU249	7128.85210393	3.71164317595	;
JU250	7067.81978704	3.61047855556	;
JU251	7058.37832694	5.79761407456	;
JU252	7112.78266307	6.22578280671	;
JU253	7048.78319601	4.25679833635	;
JU254	7043.3134	3.95664782022	;
JU255	7050.93818947	3.76625547598	;
JU256	7048.78319601	4.25679833635	;
JU257	7041.27754923	4.38801898068	;
JU258	7051.52985534	4.23812913733	;
JU259	7045.62656812	1.16057185913	;
JU260	7115.37152778	1.54335243056	;
JU261	7051.45290799	4.56435069444	;
JU262	7057.96515676	4.25610236063	;
JU263	7066.12937804	4.38506864583	;
JU264	7066.04937142	4.24521959201	;
JU265	7084.90972222	5.3222037037	;
JU266	7081.5694348	4.45034039352	;
JU267	7120.17409455	3.42504587196	;
JU268	7144.93759169	4.15958399774	;
JU269	7095.62351659	4.84694938593	;
JU270	7106.74729398	5.76589016744	;
JU271	7063.46922727	3.88573957927	;
JU272	7111.86018697	4.46858587893	;
JU273	7066.58456601	43.2115228307	;
JU274	7123.12412424	2.76604945498	;
JU275	7099.84316994	5.57054244973	;
JU276	7080.42039775	4.90672016204	;
JU277	7081.07039548	5.32451698556	;
JU278	7097.08743056	3.94948666667	;
JU279	7052.6874357	2.37775218621	;
JU280	7066.34124228	1.8586400463	;
JU281	7061.32676302	4.89769972222	;
JU282	7084.13407986	5.33704673032	;
JU283	7091.80269261	4.66356295016	;
JU284	7065.55844996	3.5821767348	;
JU285	7085.68425926	3.78385416667	;
JU286	7132.76672968	2.56821058128	;
JU287	7092.64641186	4.55613722262	;
JU288	7069.4310796	5.04431579175	;
JU289	7035.32565426	4.72131102431	;
JU290	7045.06314718	4.0038986304	;
JU291	7041.76256811	5.61906589838	;
JU292	7106.74729398	5.76589016744	;
JU293	7082.9375	4.8278125	;
JU294	7097.19489997	4.22888135789	;
JU295	7083.24827352	4.77909438387	;
JU296	7041.76256811	5.61906589838	;
JU297	7092.82475264	4.54867226752	;
JU298	7099.29166667	2.45118333333	;
JU299	7102.82222222	2.71904930556	;
JU300	7107.9923071	1.67968222222	;
JU301	7122.25332878	4.86954619433	;
JU302	7150.84804563	3.95758416667	;
JU303	7098.11574074	2.40202777778	;
JU304	7103.75152006	4.09527486934	;
JU305	7080.05594136	2.48414801955	;
JU306	7040.36188036	2.7132267554	;
JU307	7049.82523148	3.51696388889	;
JU308	7078.78336804	3.18947821887	;
JU309	7090.49180032	2.93798380677	;
JU310	7104.30231386	3.70098965422	;
JU311	7095.59376952	3.63903125013	;
JU312	7064.71644469	1.9141043056	;
JU313	7095.69985022	2.90961292163	;
JU314	7078.62835002	3.3228440653	;
JU315	7106.14049633	4.72635253125	;
JU316	7063.37356846	2.7491741488	;
JU317	7066.01471885	2.87701568005	;
JU318	7066.98716063	4.63596621693	;
JU319	7097.42626575	5.50289499958	;
JU320	7124.97448768	3.02014706431	;
JU321	7151.52298375	3.59314897795	;
JU322	7076.40786236	3.29663527671	;
JU323	7076.38440761	3.46506645515	;
JU324	7105.32941167	4.45801270609	;
JU325	7084.54256059	4.22733398882	;
JU326	7068.5809476	2.91702636538	;
JU327	7086.91394723	3.78668645417	;
JU328	7071.83669776	4.18038115888	;
JU329	7078.02657705	4.55880782608	;
JU330	7029.484375	4.1720625	;
JU331	7092.44949777	4.88117646329	;
JU332	7089.33672026	4.21250817298	;
JU333	7041.50204362	3.61899158825	;
JU334	7085.9875723	2.80241040397	;
JU335	7085.81037037	3.50513865741	;
JU336	7126.18938272	5.9084345679	;
JU337	7081.90075296	3.39171197209	;
JU338	7117.1316358	4.87812237654	;
JU339	7027.96922454	5.96492425463	;
JU340	7095.59376952	3.63903125013	;
JU341	7104.30231386	3.70098965422	;
JU342	7119.11125633	4.24500207028	;
JU343	7053.57968814	5.39844073645	;
JU344	7091.68272715	3.20005776853	;
JU345	7088.30888203	5.17616010231	;
JU346	7093.80794592	4.43165199331	;
JU347	7080.3715073	4.15256392811	;
JU348	7117.23620392	5.79945418034	;
JU349	7097.97576319	3.72870975972	;
JU350	7081.46066297	4.29034776951	;
JU351	7042.99189776	5.08310531173	;
JU352	7088.92131602	3.90693092496	;
JU353	7105.13092798	6.40928458025	;
JU354	7088.45690328	4.00769653372	;
JU355	7090.7887852	5.70323461613	;
JU356	7103.54718043	6.22918325617	;
JU357	7153.45232691	6.30606171975	;
JU358	7057.3125	1.86271296296	;
JU359	7067.19212963	2.14179166667	;
JU360	7101.27890276	4.3377395933	;
JU361	7061.17205384	6.83052676907	;
JU362	7100.24457399	3.69812150619	;
JU363	7077.70833333	6.59566666667	;
JU364	7085.44791667	2.81179166667	;
JU365	7058.47611748	4.19368291667	;
JU366	7080.64062319	5.32738067708	;
JU367	7046.26675231	5.86479195216	;
JU368	6999.11666667	4.76397708333	;
JU369	7040.70293067	6.40189601742	;
JU370	7085.82992863	4.91686255466	;
JU371	7049.9757428	5.59427204475	;
JU372	7089.9207191	4.32101124975	;
JU373	6985.41666667	4.20583333333	;
JU374	7046.95123457	6.47538094136	;
JU375	7054.52708333	7.21315833333	;
JU376	7043.48440929	6.06673977552	;
JU377	7101.29880642	5.00660855035	;
JU378	7094.1587344	4.43664997297	;
JU379	7100.70467277	4.29712075708	;
JU380	7069.0507427	4.9333429214	;
JU381	7128.6554771	6.14662305644	;
JU382	7080.07465779	4.41192943673	;
JU383	7048.74173619	4.1495824279	;
JU384	7130.98747872	5.81115784039	;
JU385	7123.77816805	4.36389754555	;
JU386	7118.76855779	4.38738049355	;
JU387	7141.56888586	3.93759730214	;
JU388	7088.10841137	3.97224713891	;
JU389	7111.29357988	3.78180265285	;
JU390	7109.57843803	3.60603039068	;
JU391	7077.46540289	5.11449304025	;
JU392	7074.93061811	5.54615508494	;
JU393	7070.50616232	13.5553455708	;
JU394	7032.77704284	4.32920639427	;
JU395	7115.38786216	3.1755575528	;
JU396	7126.60416667	4.74069791667	;
JU397	7094.05087143	3.68905181905	;
JU398	7023.62101852	2.73118731481	;
JU399	7060.40141204	2.36989025463	;
JU400	7114.56393519	2.00644791667	;
JU401	7129.34899756	7.0169865535	;
JU402	7117.30317443	2.60189405244	;
JU403	7105.66601556	3.97818336471	;
JU404	7091.93048235	3.727666982	;
JU405	7065.19791667	1.48539583333	;
JU406	7081.09122758	6.29999380931	;
JU407	7081.73485998	3.54626470185	;
JU408	7045.86640303	3.12009189815	;
JU409	7038.90872344	2.91874433428	;
JU410	7105.69748954	3.74108939178	;
JU411	7042.60416667	6.31280555556	;
JU412	7088.89448302	4.060177403	;
JU413	7111.39926983	5.49316273005	;
JU414	7099.955125	6.35103511111	;
JU415	7115.86111508	3.62983111284	;
JU416	7144.39166667	6.48611111111	;
JU417	7093.00760278	5.03589119029	;
JU418	7099.74115226	3.87554117927	;
JU419	7078.09118695	2.99330667014	;
JU420	7077.61213542	3.2858998534	;
JU421	7083.95458623	4.16217949942	;
JU422	7098.4970239	3.55934876071	;
JU423	7101.59769517	4.04747591545	;
JU424	7085.63963772	4.75409850508	;
JU425	7090.18554398	4.5328537037	;
JU426	7096.9565215	2.84025742207	;
JU427	7096.9565215	2.84025742207	;
JU428	7064.77809722	4.48196002778	;
JU429	7065.88731988	2.95125243056	;
JU430	7225.205	8.2199	;
JU431	7102.93696533	4.2868847534	;
JU432	7104.09833333	4.07064666667	;
JU433	7053.97534899	2.75878181335	;
JU434	7061.87083553	2.894301798	;
JU435	7139.40713049	7.48402555401	;
JU436	7117.72916667	0.921708333333	;
JU437	7098.98375	4.9166673206	;
JU438	7100.44416792	3.93653351369	;
JU439	7114.95833333	2.93270833333	;
JU440	7048.80357651	2.59773340689	;
JU441	7072.71929859	4.5059255854	;
JU442	7040.81318779	1.85982667091	;
JU443	7037.10649434	1.96645275353	;
JU444	7043.98844668	2.88252138448	;
JU445	7162.36007628	4.49751596721	;
JU446	7124.05472332	2.9858642306	;
JU447	7121.91632922	6.70274144856	;
JU448	7064.18510802	6.10489814815	;
JU449	7055.35282371	4.31357105195	;
JU450	7084.21565072	3.1367509838	;
JU451	7088.85492188	2.03268775849	;
JU452	7050.00527409	5.4487608882	;
JU453	7061.09089506	5.58944817387	;
JU454	7051.65417524	5.89590757888	;
JU455	7054.07664569	6.13455633681	;
JU456	7094.43302951	4.59795822485	;
JU457	7121.53636008	6.30599603086	;
JU458	7034.87675139	5.7394777936	;
JU459	7081.24319689	2.88607059775	;
JU460	7053.99896574	4.37051978845	;
JU461	7071.91386568	4.30130888567	;
JU462	7107.85469543	5.3555046083	;
JU463	7085.93027778	4.10839444444	;
JU464	7126.03436214	1.75233744856	;
JU465	7122.41408506	7.04024359706	;
JU466	7049.4206695	3.38421336728	;
JU467	7065.91738252	3.81733164583	;
JU468	7077.03774434	3.46694881687	;
JU469	7134.7848589	3.18312661811	;
JU470	7071.13333333	3.30742592593	;
JU471	7073.7931978	4.15019808691	;
JU472	7121.5283543	6.05211269845	;
JU473	7091.62929658	3.34470438808	;
JU474	7107.38983819	3.700941225	;
JU475	7072.67012778	1.61268358642	;
JU476	7086.44898458	5.11250771888	;
JU477	7058.46229681	5.93331815844	;
JU478	7049.20794676	4.58471550296	;
JU479	7112.70374643	6.0628343759	;
JU480	7105.65610141	4.20868711013	;
JU481	7096.12389183	3.16872424672	;
JU482	7068.37247475	6.08443812383	;
JU483	7091.41643936	4.1622590628	;
JU484	7076.61844907	2.73195871914	;
JU485	7174.44047619	7.55038095238	;
JU486	7074.08975694	5.53173229167	;
JU487	7119.38194535	6.1874474107	;
JU488	7134.58409392	2.54187837302	;
JU489	7075.66194444	1.22835185185	;
JU490	7076.94132576	6.59653661616	;
JU491	7077.42318244	3.7113744856	;
JU492	7037.86636598	7.0676450762	;
JU493	7057.93055556	3.79516666667	;
JU494	7082.82444183	2.3225807407	;
JU495	7084.35009183	3.8556016093	;
JU496	7086.91599211	4.68291442902	;
JU497	7107.91488481	3.89460935106	;
JU498	7090.33118745	5.29253056433	;
JU499	7082.20620405	10.3690156304	;
JU500	7126.91196642	6.85092430154	;
JU501	7057.15768298	187.214175369	;
JU502	7060.48557079	5.87127401148	;
JU503	7095.0668642	7.79884276543	;
JU504	7092.33239384	6.26072258113	;
JU505	7090.11647445	6.11970149223	;
JU506	7060.22379543	3.93046165625	;
JU507	7044.63451141	11.564790253	;
JU508	7063.88950311	5.15632706507	;
JU509	7075.63297325	3.69032433128	;
JU510	7072.12672405	0.323046682099	;
JU511	7045.14712963	3.43241308642	;
JU512	7102.92076582	7.13304456019	;
JU513	7073.30030392	0.791440390303	;
JU514	7058.41051799	3.88553747227	;
JU515	7076.57212188	1.22209571679	;
JU516	7071.66582176	4.76108585793	;
JU517	7086.30818731	1.58305277738	;
JU518	7062.15660695	2.64299734053	;
JU519	7067.69420231	3.81729260413	;
JU520	7116.79831029	4.07593755631	;
JU521	7124.23125576	4.11391987195	;
JU522	7098.83484896	3.68478197917	;
JU523	7087.39970156	5.09889646628	;
JU524	7090.73480502	5.27714315195	;
JU525	7090.70840239	5.76994548742	;
JU526	7095.93909004	3.90104674459	;
JU527	7080.6629413	3.62663967423	;
JU528	7077.04950963	3.96157275839	;
JU529	7086.12541395	3.74407042026	;
JU530	7086.12541395	3.74407042026	;
JU531	7122.80507669	4.38310282977	;
JU532	7055.85257202	4.84976316872	;
JU533	7052.97183943	6.35394783041	;
JU534	7063.8303725	4.34368180339	;
JU535	7078.61643374	3.16394259259	;
JU536	7096.87210782	4.17938418323	;
JU537	7051.10157318	7.76948949481	;
JU538	7135.76658056	2.69683975602	;
JU539	7095.44319114	5.58265436833	;
JU540	7068.41466853	3.03483959619	;
JU541	7110.86181046	4.87774450037	;
JU542	7085.27262839	3.65897048584	;
JU543	7132.71794178	4.54800479955	;
JU544	7094.4805109	2.45738165591	;
JU545	7103.02058517	3.85500397879	;
JU546	7054.28548848	4.29802542358	;
JU547	7052.05110168	2.8028948839	;
JU548	7094.69384766	3.31924804687	;
JU549	7094.86111111	1.26229166667	;
JU550	7088.31282562	4.0615185216	;
JU551	7074.66363131	3.4531846752	;
JU552	7078.21277392	3.9287718287	;
JU553	7109.51584649	2.52338731936	;
JU554	7083.43040721	3.97806683599	;
JU555	7111.42956898	5.56490005563	;
JU556	7076.65625	4.744125	;
JU557	7038.64351852	238.73157716	;
JU558	7113.56740627	3.68385815967	;
JU559	7096.72222222	3.62588888889	;
JU560	7106.83545833	1.34101225926	;
JU561	7094.47778458	3.39755119933	;
JU562	7065.21735376	4.17950540123	;
JU563	7116.78973599	4.03727814799	;
JU564	7071.97821935	4.35138754789	;
JU565	7107.26146923	4.98086647209	;
JU566	7084.63531482	3.36346680181	;
JU567	7128.6554771	6.14662305644	;
JU568	7101.92751598	3.9432003825	;
JU569	7101.26131687	5.40574485597	;
JU570	7116.21182318	6.49282419056	;
JU571	7053.75573203	3.32074178909	;
JU572	7102.69231438	5.66059608536	;
JU573	7104.10428345	3.70765969775	;
JU574	7116.13205106	6.10387583169	;
JU575	7116.68436518	5.28101035009	;
JU576	7100.82652262	2.36977769288	;
JU577	7113.25187494	3.71904044852	;
JU578	7104.94790005	5.45002775264	;
JU579	7092.85905617	5.36892423193	;
JU580	7105.82857962	4.26126202769	;
JU581	7069.54340314	5.41015676903	;
JU582	7093.54535387	5.81401993236	;
JU583	7090.00260086	3.73399032201	;
JU584	7024.47938008	3.01178498746	;
JU585	7078.55285251	3.89358254575	;
JU586	7072.4645466	5.12010839721	;
JU587	7104.09932894	3.15491146348	;
JU588	7116.97860532	2.80269626736	;
JU589	7075.96782308	3.33986606432	;
JU590	7100.81181026	6.47649944664	;
JU591	7066.62586901	5.40064794737	;
JU592	7103.78674673	3.185972358	;
JU593	7065.53960574	2.64894721047	;
JU594	7138.90645544	6.80811858025	;
JU595	7054.18071791	4.41419151878	;
JU596	7089.52178819	2.43962083333	;
JU597	7099.36456719	5.64144425908	;
JU598	7071.52236208	5.23685580633	;
JU599	7102.82222222	2.71904930556	;
JU600	7048.61574373	2.94026573723	;
JU601	7090.69637346	3.5036466821	;
JU602	7111.67737269	4.91344754051	;
JU603	7093.77175926	2.95547291667	;
JU604	7074.37309187	4.35967870536	;
JU605	7092.18062772	5.10855830716	;
JU606	7039.58460198	1.78446798886	;
JU607	7082.0284235	3.38815471361	;
JU608	7085.46560533	3.28440154033	;
JU609	7088.85772335	4.10788970015	;
JU610	7054.45940039	4.7015856171	;
JU611	7052.26853037	2.49531036409	;
JU612	7181.39940432	3.97675460597	;
JU613	7107.34756766	3.06425711427	;
JU614	7084.30168528	1.79801906636	;
JU615	7087.52410307	4.43667179561	;
JU616	7066.55301022	4.42125024306	;
JU617	7126.06763503	2.99111027521	;
JU618	7072.88399485	5.34450241875	;
JU619	7108.16476293	1.88252226324	;
JU620	7151.42530436	4.18900199331	;
JU621	7078.95350341	2.86056245242	;
JU622	7121.18315719	7.10508620829	;
JU623	7085.75133329	3.22253290751	;
JU624	7071.66582176	4.76108585793	;
JU625	7106.32755895	4.01845453029	;
JU626	7073.35050371	4.26936237928	;
JU627	7065.51485707	3.68786871418	;
JU628	7104.83449146	3.53157745699	;
JU629	7089.6260266	4.04329268731	;
JU630	7167.6014489	6.12956284294	;
JU631	7090.50275283	4.24075281379	;
JU632	7060.70137635	4.91796084557	;
JU633	7087.37809188	3.99825320802	;
JU634	7081.87519634	5.12424789207	;
JU635	7101.92299543	2.52524703254	;
JU636	7143.63074942	6.56950020062	;
JU637	7111.30949971	2.33881687576	;
JU638	7083.42192747	7.11515169753	;
JU639	7054.60924769	3.32339481481	;
JU640	7124.43745177	3.9645602651	;
JU641	7078.03418574	3.93168414116	;
JU642	7123.50766207	3.78921300894	;
JU643	7143.63074942	6.56950020062	;
JU644	7063.00420128	6.36191574176	;
JU645	7079.51540695	2.89267562902	;
JU646	7084.98822574	4.18329314225	;
JU647	7109.40631285	5.78347174281	;
JU648	7084.58915104	5.10684993994	;
JU649	7150.78936487	7.52606697724	;
JU650	7097.33502411	5.08634460663	;
JU651	7093.26042504	4.8445622879	;
JU652	7091.52982815	5.1203641788	;
JU653	7093.64847705	3.50716741098	;
JU654	7054.15327298	4.87541805142	;
JU655	7056.65155405	5.54520753535	;
JU656	7103.59557105	3.57326183433	;
JU657	7069.02400549	7.1491638546	;
JU658	7096.12389183	3.16872424672	;
JU659	7070.3265816	3.30847325324	;
JU660	7114.21304357	4.89937758481	;
JU661	7075.95852661	2.17154852069	;
JU662	7096.77386349	4.26199056391	;
JU663	7124.6850821	4.01455748336	;
JU664	7056.16063574	3.62172374781	;
JU665	7071.46107533	3.45880912981	;
JU666	7130.95486111	5.56404166667	;
JU667	7125.63118464	5.95745893788	;
JU668	7092.73777971	3.36072800926	;
JU669	7085.49804584	3.65774738828	;
JU670	7136.2702547	5.61761778197	;
JU671	7117.45345888	5.10130588006	;
JU672	7082.93055556	4.40980555556	;
JU673	7076.18956427	7.3370667141	;
JU674	7059.62221952	5.30358962577	;
JU675	7127.18489583	5.18659375	;
JU676	7083.44626736	6.59845532407	;
JU677	7095.00210354	5.42251149691	;
JU678	7085.29766888	3.23202709102	;
JU679	7102.41649884	4.40584403212	;
JU680	7126.13701886	6.76071703152	;
JU681	7090.16614612	4.09904260198	;
JU682	7088.17032207	3.68365000685	;
JU683	7102.63541667	4.60330208333	;
JU684	7098.1486781	4.40922162355	;
JU685	7082.88860989	5.44478779393	;
JU686	7066.21483958	4.26752450497	;
JU687	7141.22112285	7.74459710134	;
JU688	7060.73947402	4.63331951083	;
JU689	7100.68810463	5.69756022222	;
JU690	7097.7189075	5.7071771185	;
JU691	7063.76754593	4.04361038544	;
JU692	7075.73218961	4.06159347633	;
JU693	7158.16270123	5.8246575	;
JU694	7077.8092116	5.13141919528	;
JU695	7102.14309221	3.20259135031	;
JU696	7136.95391703	4.00067497562	;
JU697	7080.87825882	3.86037638073	;
JU698	7092.10601172	4.22468332919	;
JU699	7075.51388889	2.71332407407	;
JU700	7102.63541667	4.60330208333	;
JU701	7076.95345071	4.38114857202	;
JU702	7139.01078999	6.51404185114	;
JU703	7063.16008877	2.29484728138	;
JU704	7103.50625	3.66603194444	;
JU705	7072.42128618	3.32594992869	;
JU706	7074.66362652	4.51531170718	;
JU707	7107.24632759	3.51866724431	;
JU708	7039.60716735	239.503603887	;
JU709	7073.6951196	4.9402505787	;
JU710	7119.70184462	3.88744505208	;
JU711	7081.26388889	2.89433641975	;
JU712	7080.24694071	3.07292221268	;
JU713	7053.946875	2.340375	;
JU714	7078.0437847	5.20717757714	;
JU715	7084.21525753	4.30660633301	;
JU716	7023.38541667	4.88225833333	;
JU717	7074.90219352	5.40278739144	;
JU718	7080.4443323	3.50506410816	;
JU719	7097.04166667	6.38119444444	;
JU720	7109.22964978	4.09319770662	;
JU721	7114.31473183	5.33630934028	;
JU722	7066.50578704	1.71245138889	;
JU723	7062.43554138	4.81480106481	;
JU724	7072.02474871	4.819364634	;
JU725	7125.26598765	4.34748660494	;
JU726	7055.31666927	4.70851071773	;
JU727	7066.46722767	4.8582191993	;
JU728	7080.06619269	4.0645996038	;
JU729	7062.99456228	4.3494752525	;
JU730	7066.46722767	4.8582191993	;
JU731	7075.89617233	5.0472280207	;
JU732	7059.83313375	4.04530549516	;
JU733	7055.31666927	4.70851071773	;
JU734	7101.64247685	2.7149380787	;
JU735	7173.3046875	6.33983333333	;
JU736	7075.94916915	4.7251711528	;
JU737	7086.33042983	6.39235862461	;
JU738	7030.66015175	5.70840336265	;
JU739	7031.22968056	4.24432894444	;
JU740	7112.45767641	3.38637520956	;
JU741	7100.70794271	2.36704188368	;
JU742	7065.15916667	4.00981833333	;
JU743	7068.32387862	21.0885661692	;
JU744	7111.51421929	6.26636869655	;
JU745	7034.8528661	2.59386693177	;
JU746	7092.875	5.6765	;
JU747	7082.66666667	3.86851851852	;
JU748	7086.75804302	2.91668021605	;
JU749	7037.22916667	7.85456944444	;
JU750	7044.86639902	3.11720509259	;
JU751	7102.41481573	3.90363774655	;
JU752	7074.87036239	4.35999400375	;
JU753	7098.43849248	3.44937926939	;
JU754	7120.57371567	5.81841401642	;
JU755	7076.42153742	4.15280777392	;
JU756	7126.7434789	4.51863149353	;
JU757	7038.46326634	1.71701182972	;
JU758	7117.33080099	6.19681111375	;
JU759	7072.94775895	2.56875624588	;
JU760	7097.52396278	3.35998234568	;
JU761	7103.83631569	2.83691889918	;
JU762	7101.70651471	5.73553699168	;
JU763	7090.45828341	4.53769363827	;
JU764	7097.78081186	4.11687748714	;
JU765	7102.17482959	3.65563406511	;
JU766	7105.85211284	4.54045637576	;
JU767	7111.31661482	4.86836914619	;
JU768	7097.03335099	2.142514925	;
JU769	7139.1028432	4.13836388638	;
JU770	7128.04828961	5.08963064006	;
JU771	7053.70496462	2.3311318903	;
JU772	7065.61821064	2.75063723221	;
JU773	7102.28876997	1.81521496438	;
JU774	7101.07447627	2.55382942708	;
JU775	7060.13240741	3.96705277778	;
JU776	7099.25165607	4.39455038257	;
JU777	7051.67721157	3.27357931451	;
JU778	7147.6875	1.532625	;
JU779	7037.70240287	2.60527294016	;
JU780	7063.81045463	4.15951954733	;
JU781	7103.26158427	3.42702292405	;
JU782	7058.09969136	6.0613590535	;
JU783	7078.03418574	3.93168414116	;
JU784	7042.31950087	5.20375916233	;
JU785	7093.39103265	4.49399347475	;
JU786	7043.8026258	5.49537274679	;
JU787	7009.27787359	4.04645422952	;
JU788	7097.59747024	19.0474997024	;
JU789	7072.72842533	5.05452745349	;
JU790	7065.53489859	5.60461871252	;
JU791	7100.30951244	6.75918302571	;
JU792	7065.03374566	2.16927582465	;
JU793	7152.37194907	7.18472154938	;
JU794	7139.10677221	3.83873298813	;
JU795	7085.35446764	4.80640680606	;
JU796	7048.45138889	6.65880555556	;
JU797	7040.3170439	241.204608465	;
JU798	7138.73598251	2.96545042438	;
JU799	7136.34749441	3.47509862077	;
JU800	7100.38424229	4.32910910699	;
JU801	7069.34075705	3.83135129864	;
JU802	7106.86261833	4.06869240151	;
JU803	7098.44728866	4.25409271218	;
JU804	7133.62881451	5.37776923519	;
JU805	7050.47215526	5.69073050461	;
JU806	7067.91280864	5.42798080633	;
JU807	7080.60288333	2.54291187037	;
JU808	7140.02582019	3.73003976215	;
JU809	7119.98016413	4.63959314397	;
JU810	7068.15694123	2.99496161801	;
JU811	7088.47770303	3.64864277263	;
JU812	7063.03615612	3.52382409551	;
JU813	7072.13873537	3.56019296741	;
JU814	7092.36279514	4.1061098235	;
JU815	7093.64847705	3.50716741098	;
JU816	7128.94165603	6.33885886811	;
JU817	7071.78339763	5.47238234096	;
JU818	7059.53005214	4.3769354807	;
JU819	7116.47541152	2.11499669312	;
JU820	7083.41224203	3.14519346326	;
JU821	7133.49332984	3.83721019873	;
JU822	7110.13278164	2.64633506944	;
JU823	7068.51899802	3.55334711199	;
JU824	7054.15327298	4.87541805142	;
JU825	7066.86032508	4.73167573518	;
JU826	7056.88481316	5.05417029652	;
JU827	7063.20379625	4.9664734211	;
JU828	7103.11625048	1.86542175106	;
JU829	7097.57724215	2.13293646365	;
JU830	7146.09398148	6.10640694444	;
JU831	7048.72828128	3.14041147094	;
JU832	7039.43845486	4.71482822917	;
JU833	7061.12979399	4.32417292363	;
JU834	7064.59587191	2.79899402006	;
JU835	7130.61131944	3.15520652778	;
JU836	7126.89857551	4.70503545738	;
JU837	7112.65955988	6.27307913086	;
JU838	7050.61018626	2.85209067112	;
JU839	7100.1692644	5.59815751029	;
JU840	7084.28428819	5.09376519097	;
JU841	7059.05593935	4.65276515448	;
JU842	7075.87065747	4.7860714802	;
JU843	7060.01933574	2.38971121562	;
JU844	7105.499331	3.22825677157	;
JU845	7068.96519325	2.87664278972	;
JU846	7095.66837029	4.84541116441	;