[TITLE]
Generated synthetic network;

[JUNCTIONS]
;ID	Elev	Demand	Pattern
JU2	7071.26851852	5.53667592593	;
JU3	7041.5542524	5.3304151106	;
JU4	7094.83748801	6.26312374569	;
JU5	7110.45721236	6.23797659701	;
JU6	7074.26234568	7.18651234568	;
JU7	7068.49845679	5.66145061728	;
JU8	7041.31018519	5.94575925926	;
JU9	7057.51728312	4.11494913737	;
JU10	7076.66805556	7.74677407407	;
JU11	7104.59000479	3.75636743496	;
JU12	7069.18756734	2.7914857745	;
JU13	7168.24346602	6.84719201389	;
JU14	7038.43625145	1.88809195313	;
JU15	7097.75601944	3.8087729963	;
JU16	7050.86807872	1.47125666029	;
JU17	7070.74580084	5.33091637088	;
JU18	7106.43287021	2.11552933426	;
JU19	7087.47186053	3.92085368441	;
JU20	7105.51735995	4.28166259259	;
JU21	7102.61948574	3.53830691491	;
JU22	7067.27982776	3.75029906198	;
JU23	7096.46039321	3.10915237282	;
JU24	7058.78060208	3.83395583456	;
JU25	7067.07815508	3.45538335992	;
JU26	7062.0811951	3.60304314601	;
JU27	7072.85742021	3.13084554071	;
JU28	7094.48922625	2.20583666275	;
JU29	7075.5163367	3.16116014807	;
JU30	7074.95159768	3.16327594687	;
JU31	7090.17445336	3.91849176693	;
JU32	7079.94431383	3.98066807475	;
JU33	7111.58303417	3.92253546619	;
JU34	7110.85404999	3.39140118893	;
JU35	7079.88250069	3.38991002743	;
JU36	7099.0750778	4.6247016525	;
JU37	7119.11459439	3.74486450849	;
JU38	7108.54358601	3.34866883124	;
JU39	7143.98449809	3.42615197586	;
JU40	7058.89259259	2.83775377778	;
JU41	7096.23249603	3.36012579019	;
JU42	7160.00444878	1.81765170356	;
JU43	7067.58645576	2.92530333398	;
JU44	7094.58633188	4.79533474409	;
JU45	7098.28176762	4.038057051	;
JU46	7094.47934314	4.60134551728	;
JU47	7092.99833848	3.86596812757	;
JU48	7093.11259516	3.94894702675	;
JU49	7080.24075331	3.00882284074	;
JU50	7108.00964506	3.5669058642	;
JU51	7097.42539066	3.8120610574	;
JU52	7067.47939651	3.48194046153	;
JU53	7066.41915439	4.86466811106	;
JU54	7122.30190064	4.02934928512	;
JU55	7081.16628221	3.25860638966	;
JU56	7109.93393075	3.40923775922	;
JU57	7065.36001691	4.69132702753	;
JU58	7072.96396448	5.76666340062	;
JU59	7062.94626543	4.21299787037	;
JU60	7104.67757747	1.42128969408	;
JU61	7061.67407407	2.84548533333	;
JU62	7095.7010631	3.221840368	;
JU63	7059.08249972	3.85751994213	;
JU64	7077.06875	1.83855798611	;
JU65	7088.2967309	5.74851951896	;
JU66	7087.01239988	5.96233687211	;
JU67	7067.38788011	3.62755285418	;
JU68	7071.45833333	4.49051666667	;
JU69	7150.12062776	7.45351300713	;
JU70	7085.73958333	3.34633333333	;
JU71	7072.25475231	2.69482846296	;
JU72	7082.32163297	3.23384876651	;
JU73	7034.59031259	5.40766473134	;
JU74	7076.20650912	2.71587997614	;
JU75	7092.96003047	2.42172610544	;
JU76	7123.20787008	3.47959405825	;
JU77	7087.46614583	1.14877083333	;
JU78	7078.32200463	2.92130692593	;
JU79	7114.69112245	4.71896482993	;
JU80	7031.13053902	3.96849503968	;
JU82	7089.82372065	3.00996631118	;
JU83	7061.67113838	3.07837648783	;
JU84	7059.4466775	3.61635753504	;
JU85	7082.54279514	3.38727152778	;
JU86	7111.07976999	4.45244393428	;
JU87	7105.57546296	3.4586320216	;
JU88	7088.61902494	5.56207575617	;
JU89	7069.00198206	2.77618666746	;
JU90	7074.12553879	0.88292340976	;
JU91	7090.95925926	3.9160962963	;
JU92	7082.86353616	5.71578720238	;
JU93	7104.3358724	4.71556927083	;
JU94	7138.05494702	3.30914556689	;
JU95	7080.64617361	0.3267875	;
JU96	7130.08112294	5.71486067667	;
JU97	7101.78219907	4.39732048611	;
JU98	7094.48922625	2.20583666275	;
JU99	7126.8265873	4.03671155754	;
JU100	7116.64471529	3.89003122638	;
JU101	7114.98771219	5.49332693287	;
JU102	7133.36603009	6.19295997657	;
JU103	7140.27932099	4.2276867284	;
JU104	7113.18981481	6.28690740741	;
JU105	7082.45625	4.3766625	;
JU106	7103.31856368	5.72613774414	;
JU107	7106.00616004	3.99993939953	;
JU108	7122.29516087	5.34413896412	;
JU109	7141.06111111	2.57096296296	;
JU110	7105.61587461	5.32439038203	;
JU111	7091.71937707	4.85696089685	;
JU112	7086.58716146	2.43803632639	;
JU113	7089.57751834	2.47048799783	;
JU114	7069.94252584	5.79463505148	;
JU115	7143.91509406	2.99108445767	;
JU116	7100.93055645	1.90920256782	;
JU117	7091.76713847	4.75415310892	;
JU118	7043.20980903	4.53069548611	;
JU119	7071.60800144	5.38971371583	;
JU120	7098.54275458	3.94688165042	;
JU121	7100.11669147	6.0535109127	;
JU122	7066.92459259	101.050110949	;
JU123	7086.08708246	2.81371958958	;
JU124	7079.8883137	5.41983115433	;
JU125	7100.04979641	4.31991513698	;
JU126	7123.95439665	3.8721402771	;
JU127	7084.71474713	4.22012135747	;
JU128	7060.53644444	2.37029649383	;
JU129	7071.10966435	2.84658912037	;
JU130	7115.87179469	2.98477891614	;
JU131	7115.76706224	2.37054103807	;
JU132	7117.29501124	2.96101417883	;
JU133	7106.11237363	3.52133832356	;
JU134	7125.52209321	2.32772929184	;
JU135	7100.15154986	3.11350601051	;
JU136	7088.54101889	4.19024167261	;
JU137	7093.78281666	4.25604892039	;
JU138	7103.70057065	2.35814890517	;
JU139	7102.88574918	4.57675611832	;
JU140	7051.1646001	4.64566595483	;
JU141	7099.75455379	3.52953229059	;
JU142	7086.51884672	3.8001921375	;
JU143	7125.23000963	2.61683432955	;
JU144	7093.47600952	2.89514969136	;
JU145	7080.14782407	4.07693589988	;
JU146	7069.5839612	3.72732660494	;
JU147	7058.62933201	4.68972948413	;
JU148	7086.48596989	4.42454393373	;
JU149	7105.793995	1.79429065736	;
JU150	7120.90613426	5.68277944444	;
JU151	7123.98866667	4.4409304	;
JU152	7105.83834035	2.92658697865	;
JU153	7101.1353989	4.49304228562	;
JU154	7099.89960165	4.27018507068	;
JU155	7075.75632378	3.06708107639	;
JU156	7079.11597656	3.61706640625	;
JU157	7061.7334827	3.39228635548	;
JU158	7078.808617	6.53500244606	;
JU159	7088.48267361	4.25014947917	;
JU160	7093.84521605	5.06911728395	;
JU161	7130.14019174	4.2127654321	;
JU162	7118.88703704	5.01867654321	;
JU163	7037.68779364	4.07780721166	;
JU164	7044.14301858	4.5000473337	;
JU165	7185.50627431	0.813698176505	;
JU166	7062.4779024	3.6013554793	;
JU167	7077.72730424	3.12029322515	;
JU168	7152.72422397	1.9758839479	;
JU169	7070.68804932	3.15958042173	;
JU170	7116.1796414	2.99707084051	;
JU171	7099.66933835	4.09769166667	;
JU172	7101.18482073	4.79017455504	;
JU173	7131.70355099	5.21413480811	;
JU174	7083.6849992	58.8645872953	;
JU175	7061.09834547	4.28797659704	;
JU176	7053.96745898	4.55307061135	;
JU177	7069.08416406	4.39634223785	;
JU178	7057.02259422	3.39973720045	;
JU179	7069.45642007	4.46659842687	;
JU180	7056.75330581	4.95307117135	;
JU181	7059.48869541	5.20026467811	;
JU182	7018.66111111	4.71981777778	;
JU183	7035.12403207	4.6726199006	;
JU184	7097.90737093	5.2093789596	;
JU186	7060.79567699	3.16550830589	;
JU187	7068.70302146	3.18521505093	;
JU188	7084.05776308	3.17255176036	;
JU189	7058.99821211	4.88040970164	;
JU190	7110.57824074	2.91574093364	;
JU191	7141.9703373	0.919216269841	;
JU192	7120.8636498	2.36046133944	;
JU193	7116.64471529	3.89003122638	;
JU194	7141.19803477	2.41036451247	;
JU195	7092.96452626	5.75632327498	;
JU196	7075.66083821	4.37205938097	;
JU197	7130.36357185	2.8358521038	;
JU198	7081.10294654	2.92646262524	;
JU199	7070.81132858	2.17154845425	;
JU200	7094.38896605	4.22948631944	;
JU201	7066.44782118	2.41700809606	;
JU202	7080.17128899	3.84647823796	;
JU203	7072.73830099	2.68757209761	;
JU204	7095.93093492	4.9335525649	;
JU205	7054.28169848	4.95353374421	;
JU206	7112.15775449	4.87795330054	;
JU207	7085.76495355	4.50228344138	;
JU208	7046.61423849	3.58408276913	;
JU209	7107.39663056	5.59716682882	;
JU210	7073.66798761	3.2679941802	;
JU211	7089.67742988	3.19922739313	;
JU212	7106.97130126	7.15757097594	;
JU213	7051.1646001	4.64566595483	;
JU214	7054.06939112	3.71514276042	;
JU215	7095.80023037	3.58938846075	;
JU216	7089.11634529	3.57241337346	;
JU217	7120.16852431	5.14983913966	;
JU218	7061.07648889	29.6530900778	;
JU219	7073.71505241	3.74113608129	;
JU220	7087.02985999	2.92829838287	;
JU221	7015.36515509	2.82822673354	;
JU222	7064.20561849	4.86994844711	;
JU223	7102.24065008	3.81390971451	;
JU224	7031.8726455	5.78998434656	;
JU225	7088.71122487	3.97418351323	;
JU226	7082.3936343	5.48438306572	;
JU227	7071.69058179	3.9655822284	;
JU228	7097.26614764	4.77105901076	;
JU229	7078.20772629	4.10041432091	;
JU230	7065.97016303	4.24576693308	;
JU231	7114.93962344	2.2923146561	;
JU232	7083.92528212	3.03889176432	;
JU233	7102.15899959	3.14959537509	;
JU234	7113.57113903	4.46798771528	;
JU235	7063.32006771	2.25762924653	;
JU236	7077.63867006	2.57356614472	;
JU237	7110.53877676	3.49311021612	;
JU238	7104.42567918	4.7021026254	;
JU239	7082.32266358	3.64890867284	;
JU240	7081.11635514	4.05811290047	;
JU241	7107.64152312	4.97365886317	;
JU242	7133.78298611	6.38978472222	;
JU243	7109.40342882	5.50238272569	;
JU244	7064.89386038	2.11381857437	;
JU245	7097.54975917	3.18863123071	;
JU246	7126.40072421	2.73969668899	;
JU247	7119.63457612	3.0040247911	;
JU248	7136.49151049	3.69996174661	;
JU249	7125.91190545	3.26326377961	;
JU250	7159.1875	8.08258333333	;
JU251	7153.77815807	7.49523029101	;
JU252	7114.76638044	3.75822133642	;
JU253	7120.28002092	3.61731504561	;
JU254	7061.08769244	3.7235031607	;
JU255	7087.77222222	1.32407592593	;
JU256	7079.42105358	3.21622786217	;
JU257	7089.06960305	3.26287323388	;
JU258	7045.98774824	4.47391419281	;
JU259	7076.9061362	4.51807846136	;
JU260	7094.23063205	5.37410656774	;
JU261	7100.20773225	3.66160547699	;
JU262	7106.52304718	3.98820589992	;
JU263	7108.12975289	2.96951636637	;
JU264	7117.84377811	3.5713630767	;
JU265	7115.61107494	4.87957190394	;
JU266	7087.66842207	2.85300983796	;
JU267	7036.79881769	3.69501180781	;
JU268	7102.73339231	3.39119757275	;
JU269	7119.40625	4.5299375	;
JU270	7080.65441792	3.52101659529	;
JU271	7132.05591988	4.03663292181	;
JU272	7088.61175509	2.54177408104	;
JU273	7049.91984001	1.21163899308	;
JU274	7102.63370023	3.77065263657	;
JU275	7100.35049627	5.60874552379	;
JU276	7071.36234706	4.71628327546	;
JU277	7072.55975741	3.80691952963	;
JU278	7093.58528164	2.66550672743	;
JU279	7064.01767108	2.19927510194	;
JU280	7141.3466081	6.6985853197	;
JU281	7088.55890134	3.68481752596	;
JU282	7081.31953546	3.37428966011	;
JU283	7090.34787835	3.44597945038	;
JU284	7083.87796048	2.64027955516	;
JU285	7075.18000373	5.75719512483	;
JU286	7135.89904639	5.61965100987	;
JU287	7055.01205986	3.51109790349	;
JU288	7088.24445796	2.67057340794	;
JU289	7133.01064667	5.103876154	;
JU290	7044.70298611	1.40641958333	;
JU291	7110.18208981	2.70912410754	;
JU292	7093.25405237	4.36014023252	;
JU293	7144.12413625	2.1021584216	;
JU294	7093.5144494	5.57328588294	;
JU295	7071.27713373	3.57535838896	;
JU296	7117.30324206	4.14184197451	;
JU297	7135.3042046	3.40152296862	;
JU298	7110.12053086	4.01339590123	;
JU299	7134.95580276	4.00849316021	;
JU300	7053.24485597	5.76608847737	;
JU301	7058.54039095	4.64564072016	;
JU302	7122.22211653	5.13086639049	;
JU303	7053.86382716	3.28462311728	;
JU304	7090.61308906	6.85445795821	;
JU305	7070.57948388	5.74191961591	;
JU306	7091.62762332	4.54530721035	;
JU307	7059.5453373	3.28191618648	;
JU308	7074.54414183	3.48933108303	;
JU309	7094.94736543	5.64032302189	;
JU310	7103.8108548	5.38911707051	;
JU311	7075.27604552	2.91487404417	;
JU312	7077.94740226	2.92518030478	;
JU313	7089.71021605	4.02158008488	;
JU314	7078.49592776	3.99383106679	;
JU315	7090.47643789	5.34487238903	;
JU316	7075.49504597	2.53549412109	;
JU317	7051.1060075	3.25520166607	;
JU318	7095.26388889	0.564027777778	;
JU319	7100.52398148	3.66871097884	;
JU320	7153.91666667	7.89875	;
JU321	7118.96667923	1.11394141093	;
JU322	7151.33698316	6.60720446387	;
JU323	7044.03527773	4.18784674376	;
JU324	7110.31174654	2.6875392947	;
JU325	7188.50815972	1.03364337384	;
JU326	7160.00444878	1.81765170356	;
JU327	7169.34955036	1.43460958954	;
JU328	7185.50627431	0.813698176505	;
JU329	7149.59671682	2.44524472287	;
JU330	7134.95580276	4.00849316021	;
JU331	7110.12053086	4.01339590123	;
JU332	7053.86382716	3.28462311728	;
JU333	7094.24569895	2.80423863235	;
JU334	7102.39817377	2.34607107155	;
JU335	7127.7833955	1.79309874437	;
JU336	7106.72219329	6.13898972529	;
JU337	7064.89471936	3.48233230291	;
JU338	7075.12953032	6.44474009582	;
JU339	7100.61129406	3.00727774411	;
JU340	7060.33296311	7.76093229102	;
JU341	7061.40770821	7.86783528404	;
JU342	7072.94280316	2.90840804051	;
JU343	7055.57941555	4.34310606937	;
JU344	7050.045	3.07897791667	;
JU345	7076.63444389	3.36456396078	;
JU346	7098.13888889	2.1085	;
JU347	7154.65592963	4.49965500966	;
JU348	7107.3576654	5.20007673679	;
JU349	7106.88318544	6.40211134259	;
JU350	7101.91607214	4.68980014768	;
JU351	7094.25738648	3.78072917248	;
JU352	7041.97360438	1.90124355107	;
JU353	7123.91884622	5.76580030495	;
JU354	7114.41533751	2.10249365699	;
JU355	7121.89846628	2.22998555061	;
JU356	7117.78889008	4.44832671643	;
JU357	7063.17483025	14.3325540123	;
JU358	7048.93981143	1.23561949556	;
JU359	7042.92288492	5.57505910834	;
JU360	7096.67652997	3.91214814846	;
JU361	7045.67919692	4.79321181349	;
JU362	7060.27083333	0.167583333333	;
JU363	7068.26041667	4.192625	;
JU364	7057.4792224	4.48133035731	;
JU365	7107.76120083	4.01273656697	;
JU366	7055.97125028	6.23392533961	;
JU367	7091.15804894	4.43567333721	;
JU368	7075.0214456	2.75249907999	;
JU369	7056.38609797	4.44646123916	;
JU370	7155.32101528	4.30277769405	;
JU371	7071.09327588	2.50487600112	;
JU372	7158.38611111	6.80772666667	;
JU373	7145.98333333	3.6192875	;
JU374	7103.52946789	5.54514082025	;
JU375	7100.80147641	3.94305547324	;
JU376	7138.2746422	4.56674616142	;
JU377	7061.64860291	3.61948663437	;
JU378	7105.10480903	4.17840124783	;
JU379	7080.73234647	2.529764044	;
JU380	7067.9322338	2.90688773148	;
JU381	7092.96665758	2.83538922439	;
JU382	7081.53151553	2.26006877238	;
JU383	7111.77377425	2.98321903292	;
JU384	7085.88575776	2.0765754973	;
JU385	7043.83259071	3.14136673437	;
JU386	7071.78928715	4.80776127083	;
JU387	7026.51666667	5.12296666667	;
JU388	7047.07804067	3.01303725088	;
JU389	7115.32366071	6.69019444444	;
JU390	7071.14485139	3.49945023944	;
JU391	7045.83033978	2.98950334766	;
JU392	7074.96418651	4.15877473545	;
JU393	7168.24346602	6.84719201389	;
JU394	7109.71458333	3.46467083333	;
JU395	7126.25578704	5.5971935941	;
JU396	7084.62837356	4.63418950184	;
JU397	7081.39402115	2.8802012459	;
JU398	7099.20886667	2.578807325	;
JU399	7088.17301383	4.44489072079	;
JU400	7027.57048611	2.69823958333	;
JU401	7131.59651428	6.01051264493	;
JU402	7131.5027413	6.14146982444	;
JU403	7071.34027778	1.89350416667	;
JU404	7094.2132581	3.4327890625	;
JU405	7127.10277547	2.92551951272	;
JU406	7088.55115878	0.516827451989	;
JU407	7057.13009259	2.2745962963	;
JU408	7148.55409098	1.91495196352	;
JU409	7109.03530093	4.24096989535	;
JU410	7111.84395944	3.78449895944	;
JU411	7132.89793424	2.413828423	;
JU412	7040.85113812	3.1788839429	;
JU413	7065.96693354	2.02039936594	;
JU414	7116.41840149	2.87554065485	;
JU415	7163.93483796	5.18215601852	;
JU416	7044.3344246	3.88331251653	;
JU417	7083.30353154	4.04405205705	;
JU418	7129.20689056	4.64181765975	;
JU419	7088.86708009	4.48662758431	;
JU420	7137.67509986	3.68621790156	;
JU421	7091.10618641	3.07897513173	;
JU422	7118.05905904	6.2798364435	;
JU423	7061.10526736	3.54524730674	;
JU424	7154.40411523	5.34884850823	;
JU425	7108.9852436	2.91831146326	;
JU426	7078.81041775	2.90002953708	;
JU427	7117.86933086	3.31260085626	;
JU428	7115.34136708	2.3528739243	;
JU429	7085.18051074	2.19359940333	;
JU430	7124.28566486	3.72187487576	;
JU431	7061.7433171	5.37010455222	;
JU432	7123.33259259	2.74780148148	;
JU433	7102.20609439	5.67371022981	;
JU434	7075.39390961	3.95170671493	;
JU435	7058.27877693	1.5160690051	;
JU436	7043.91506613	3.62792018805	;
JU437	7067.40581109	4.72580211282	;
JU438	7107.81646176	4.58525932241	;
JU439	7055.90579556	2.46603458084	;
JU440	7076.25400822	5.25631520396	;
JU441	7053.96745898	4.55307061135	;
JU442	7061.09834547	4.28797659704	;
JU443	7037.74103133	1.89634215273	;
JU444	7078.31164397	4.06584527661	;
JU445	7095.49178776	4.7786592674	;
JU446	7037.91436604	3.75559583319	;
JU447	7075.67662731	3.57966596296	;
JU448	7095.17987713	5.01539080481	;
JU449	7077.06666667	0.505491666667	;
JU450	7052.45149852	6.34691238431	;
JU451	7090.89659417	4.25089819795	;
JU452	7070.6579636	3.35755925144	;
JU453	7051.29770833	2.55145324653	;
JU454	7079.82186498	3.67686972409	;
JU455	7072.92790852	3.86198608968	;
JU456	7080.82971642	4.49398996502	;
JU457	7116.2138545	5.55969331629	;
JU458	7111.98611101	4.8608324564	;
JU459	7076.89359915	3.79449713735	;
JU460	7081.0865972	4.0880083664	;
JU461	7083.49664547	2.67684678386	;
JU462	7058.25925926	5.536	;
JU463	7041.97360438	1.90124355107	;
JU464	7085.88743111	4.25567043651	;
JU465	7093.57138733	4.21435823472	;
JU466	7083.96747524	2.0168666875	;
JU467	7058.89106233	3.79878059206	;
JU468	7070.00960945	4.17766841222	;
JU469	7069.31314691	5.53491098074	;
JU470	7071.68811079	3.25736590786	;
JU471	7087.2409437	4.0421731212	;
JU472	7081.83307128	4.59262221013	;
JU473	7041.32736772	3.14338577667	;
JU474	7072.12840368	5.82097326264	;
JU475	7118.31014185	4.87855404225	;
JU476	7079.75569046	3.20223790288	;
JU477	7082.73165677	4.19784792855	;
JU478	7107.5544213	3.80473854167	;
JU479	7117.38947193	2.31152595907	;
JU480	7083.26196718	3.33464873003	;
JU481	7119.2289608	4.1248656719	;
JU482	7115.82102852	6.12558085903	;
JU483	7054.51542691	3.66978715146	;
JU484	7060.18713685	2.58160838953	;
JU485	7072.99924359	4.35971265956	;
JU486	7087.36501728	4.35020325	;
JU487	7090.71573889	5.38520126389	;
JU488	7057.889375	4.274159375	;
JU489	7058.98697755	4.60487366313	;
JU490	7066.57833333	6.46383444444	;
JU491	7028.50244743	2.47649848331	;
JU492	7112.94341564	2.53841858764	;
JU493	7118.66527196	7.23550482118	;
JU494	7060.93743445	5.49844138333	;
JU495	7103.68774889	2.93139606937	;
JU496	7022.66666667	6.35241666667	;
JU497	7060.05626688	2.92808227527	;
JU498	7099.16759259	3.20836481481	;
JU499	7067.43688368	3.30959397569	;
JU500	7096.14835397	3.52294706752	;
JU501	7079.30641166	3.43231031929	;
JU502	7067.7902228	3.08742082383	;
JU503	7087.49514371	3.64377222934	;
JU504	7067.7902228	3.08742082383	;
JU505	7096.48259245	3.75824334434	;
JU506	7073.72901658	2.95613497781	;
JU507	7115.50630457	4.21311479286	;
JU508	7074.8505	0.861332407407	;
JU509	7129.2693333	133.877927066	;
JU510	7129.2693333	133.877927066	;
JU511	7152.54606674	13.8750296296	;
JU512	7080.10763643	1.47374425679	;
JU513	7101.80182284	75.197558409	;
JU514	7093.37631538	59.3306900465	;
JU515	7120.11076832	130.900543926	;
JU516	7120.11076832	130.900543926	;
JU517	7101.95009704	2.77296729237	;
JU518	7098.62918638	1.82509800702	;
JU519	7123.11259005	3.16998676054	;
JU520	7104.71304244	2.84336449304	;
JU521	7083.82133314	5.85500659685	;
JU522	7092.67057242	5.97694966742	;
JU523	7115.13330471	2.98607389654	;
JU524	7063.64313261	4.119672864	;
JU525	7094.8492781	2.86331318246	;
JU526	7100.87255277	4.09914126881	;
JU527	7103.60781921	4.92661087441	;
JU528	7114.21711395	3.11215413869	;
JU529	7042.30862462	3.54706661251	;
JU530	7104.29812274	3.8657480429	;
JU531	7065.90154144	4.0588801798	;
JU532	7099.04171811	5.0901909465	;
JU533	7104.01096804	2.71437564501	;
JU534	7104.46109286	5.97066675634	;
JU535	7113.87749518	3.18614570795	;
JU536	7097.55610711	2.53218081287	;
JU537	7105.81425026	4.50915351518	;
JU538	7075.99389021	4.60867488875	;
JU539	7066.62561728	4.60359814815	;
JU540	7078.08944575	5.00501800568	;
JU541	7091.27180571	4.56979829076	;
JU542	7084.89301416	4.90727210952	;
JU543	7085.13125278	5.29754248889	;
JU544	7046.42229734	5.286825645	;
JU545	7096.43651693	3.83901925694	;
JU546	7082.06651456	4.50981894097	;
JU547	7107.98958333	4.94456597222	;
JU548	7105.31021619	5.56439514389	;
JU549	7085.81132484	2.81263073265	;
JU550	7083.82830792	3.41462587963	;
JU551	7060.18220269	4.79366205539	;
JU552	7079.69214482	4.32785112116	;
JU553	7069.31597222	2.34667361111	;
JU554	7081.81025752	6.04003399884	;
JU555	7055.64840061	2.89886291305	;
JU556	7067.43688368	3.30959397569	;
JU557	7093.97469894	5.57886964806	;
JU558	7079.90629326	4.8028439634	;
JU559	7058.23300498	3.71967946219	;
JU560	7148.56623457	3.67443790123	;
JU561	7106.28169626	3.44184072538	;
JU562	7104.63031481	4.42100401852	;
JU563	7052.90529996	4.40691542728	;
JU564	7120.19978227	2.58629871886	;
JU565	7121.64743866	4.22326780463	;
JU566	7091.95939429	4.83206572145	;
JU567	7065.54705046	3.42525244254	;
JU568	7086.11578375	3.68402405152	;
JU569	7079.66963149	4.0524117507	;
JU570	7105.57351637	2.90207054334	;
JU571	7123.1512973	2.33567881248	;
JU572	7130.52072357	1.99296920733	;
JU573	7079.39772531	4.8226399291	;
JU574	7110.61206487	4.33012814953	;
JU575	7099.85450329	3.76303800811	;
JU576	7111.225626	3.45740933309	;
JU577	7112.97631615	3.32114478767	;
JU578	7093.78952656	5.06841276246	;
JU579	7082.8835133	2.72775315082	;
JU580	7121.32983333	3.78018933333	;
JU581	7114.20033695	3.62023936217	;
JU582	7082.52378562	4.85714755007	;
JU583	7084.20117188	7.10045442708	;
JU584	7085.88575776	2.0765754973	;
JU585	7100.59652886	3.394972121	;
JU586	7089.83255783	4.05831972337	;
JU587	7023.62344072	3.71281024949	;
JU588	7097.7948654	3.38430552617	;
JU589	7088.77239326	4.27335880273	;
JU590	7115.24913194	1.87608680556	;
JU591	7127.79862595	3.81925013552	;
JU592	7108.00964506	3.5669058642	;
JU593	7093.11259516	3.94894702675	;
JU594	7162.61123843	2.00771148148	;
JU595	7116.33689129	1.69829466735	;
JU596	7071.69058179	3.9655822284	;
JU597	7090.6742527	3.3950863642	;
JU598	7083.48880353	3.03561856116	;
JU599	7082.67593231	2.9248026544	;
JU600	7131.41409861	17.1279640328	;
JU601	7096.82743306	3.17080496807	;
JU602	7080.18805941	4.19587569444	;
JU603	7105.27906255	5.28839763553	;
JU604	7122.16654008	2.94043018386	;
JU605	7075.10026455	4.91583373016	;
JU606	7080.25103346	4.5188041288	;
JU607	7132.16571591	4.59915926026	;
JU608	7089.97642072	3.38956119792	;
JU609	7052.99120129	5.01878582176	;
JU610	7140.53336918	5.83948507362	;
JU611	7116.7566853	4.24869985247	;
JU612	7064.43546055	3.99739717323	;
JU613	7078.84832377	2.89129429828	;
JU614	7107.50381361	6.89591716102	;
JU615	7072.38972753	4.33108707645	;
JU616	7072.85742021	3.13084554071	;
JU617	7067.8208912	5.77301202418	;
JU618	7117.10328286	4.8625480013	;
JU619	7046.30802469	3.85219259259	;
JU620	7082.19814359	5.05491472497	;
JU621	7115.26754464	4.69540044643	;
JU622	7129.41348214	3.21776662864	;
JU623	7073.28408565	3.7538599537	;
JU624	7109.54803137	5.81310046159	;
JU625	7087.30573158	5.07642425733	;
JU626	7053.92170139	6.93877326389	;
JU627	7124.15468888	3.06076177327	;
JU628	7074.03847415	5.1076988233	;
JU629	7170.90549923	1.62233274846	;
JU630	7058.8662963	3.7884947572	;
JU631	7147.04703704	2.94403712963	;
JU632	7128.94243056	3.89565200617	;
JU633	7081.2239669	4.28401979505	;
JU634	7047.24335979	3.33226722222	;
JU635	7104.80332829	9.40250262736	;
JU636	7068.9841821	2.71081558642	;
JU637	7083.83801866	4.91727499277	;
JU638	7071.68248457	3.26205501543	;
JU639	7089.81562319	3.36454932364	;
JU640	7079.1791082	2.77630221889	;
JU641	7096.16087635	3.41758830065	;
JU642	7080.04479167	3.38331826389	;
JU643	7081.65685415	4.17060447049	;
JU644	7088.43557176	4.4610621954	;
JU645	7073.08434031	2.63095112709	;
JU646	7073.07342145	2.78681260777	;
JU647	7072.39548816	3.08084092431	;
JU648	7081.03095271	3.36119533185	;
JU649	7075.95641182	3.04303501695	;
JU650	7079.00790782	4.22592230312	;
JU651	7026.39444027	2.93406917138	;
JU652	7085.07683986	2.54174068026	;
JU653	7081.49425926	4.89907083333	;
JU654	7137.70695979	14.5684357714	;
JU655	7099.01181739	4.45720878858	;
JU656	7097.60770514	3.49778189781	;
JU657	7094.88672153	5.70148728056	;
JU658	7063.4845679	4.17559537037	;
JU659	7151.47262598	3.86689267986	;
JU660	7043.96463682	2.52161208814	;
JU661	7072.1875	3.16275	;
JU662	7110.92198701	2.84759882681	;
JU663	7053.89461112	2.93807552686	;
JU664	7096.88888889	3.86571180556	;
JU665	7080.89169593	3.52050391287	;
JU666	7123.43510922	4.23549736475	;
JU667	7135.15472729	4.62729076244	;
JU668	7126.86909851	5.80608607896	;
JU669	7102.12440676	2.9027240123	;
JU670	7075.23025419	4.55087362011	;
JU671	7092.09574331	3.69233989198	;
JU672	7046.84191872	2.13629738169	;
JU673	7105.13319382	4.24657962264	;
JU674	7151.69326255	4.51148086624	;
JU675	7091.64987507	3.91434386023	;
JU676	7084.61803436	4.39783543937	;
JU677	7068.08085583	2.33067405166	;
JU678	7081.10294654	2.92646262524	;
JU679	7087.91998229	4.38623720146	;
JU680	7088.23011447	2.35999821573	;
JU681	7088.61175509	2.54177408104	;
JU682	7105.7181948	2.32229378745	;
JU683	7076.70508674	3.1125855479	;
JU684	7078.17265355	3.34622630665	;
JU685	7131.32771776	2.76733737997	;
JU686	7035.85212943	3.79640399182	;
JU687	7101.94734834	3.95063983463	;
JU688	7187.62905093	8.01534799383	;
JU689	7083.63805645	4.33509593781	;
JU690	7072.70042961	2.84156438107	;
JU691	7104.34417658	5.34024961603	;
JU692	7102.42597435	1.99311425461	;
JU693	7094.36567411	3.7573375134	;
JU694	7072.77799479	2.82273177083	;
JU695	7118.98201685	5.14211654225	;
JU696	7071.57609568	3.43078120885	;
JU697	7106.55849905	2.87134239268	;
JU698	7124.88430959	5.16698335462	;
JU699	7047.58731293	2.87680227891	;
JU700	7088.78517073	4.4121349534	;
JU701	7025.36658951	3.71505987654	;
JU702	7105.10480903	4.17840124783	;
JU703	7149.16647901	2.95678927407	;
JU704	7121.32708333	3.89757110822	;
JU705	7068.56980169	5.21939076113	;
JU706	7053.53428202	3.44143855367	;
JU707	7060.01054633	4.55882502553	;
JU708	7075.8666307	5.05914831112	;
JU709	7057.557752	3.67473268189	;
JU710	7057.86894383	4.19729005169	;
JU711	7068.32365547	4.84289525579	;
JU712	7069.24542055	5.55816474934	;
JU713	7057.86894383	4.19729005169	;
JU714	7060.01054633	4.55882502553	;
JU715	7080.22450737	4.11210951195	;
JU716	7065.02929138	2.30720208613	;
JU717	7059.76278005	5.51208901053	;
JU718	7050.02642872	2.49039940372	;
JU719	7066.75226981	3.64278752529	;
JU720	7089.703939	2.58531062906	;
JU721	7087.47510179	3.11671614515	;
JU722	7112.27156189	2.14106800124	;
JU723	7072.8264631	4.2440202958	;
JU724	7062.51189532	4.92335378555	;
JU725	7095.88537613	4.50935351659	;
JU726	7123.98251029	5.40634670782	;
JU727	7084.56120552	2.88523765641	;
JU728	7077.30157899	6.75943814847	;
JU729	7083.53956709	5.78673596322	;
JU730	7042.81359613	4.32899114767	;
JU731	7132.70278802	2.87820612286	;
JU732	7111.29479167	5.22124270833	;
JU733	7111.95468055	1.78797628276	;
JU734	7076.69536309	2.55049749398	;
JU735	7119.09352593	5.26115744375	;
JU736	7104.2175128	2.68767663089	;
JU737	7131.3213193	1.062882016	;
JU738	7095.86806574	2.63402452818	;
JU739	7068.90687521	2.91742809949	;
JU740	7060.85175416	3.94928670718	;
JU741	7078.16378751	3.69771611404	;
JU742	7070.23055293	111.854127436	;
JU743	7056.09464676	2.74451313615	;
JU744	7067.87619757	31.7587526642	;
JU745	7075.8596186	3.65626888141	;
JU746	7081.5107914	3.23377860909	;
JU747	7091.40531588	2.67340484549	;
JU748	7092.19335353	3.02777882587	;
JU749	7063.59057539	3.2971802161	;
JU750	7081.39501409	5.64494899302	;
JU751	7084.08081798	4.07124838124	;
JU752	7057.32799803	3.8254725365	;
JU753	7072.91346547	4.3921270652	;
JU754	7141.63428996	2.63681058825	;
JU755	7114.69112245	4.71896482993	;
JU756	7103.60781921	4.92661087441	;
JU757	7051.15097939	3.14591578144	;
JU758	7051.96138972	3.19913226521	;
JU759	7111.85528064	5.3754596793	;
JU760	7040.8683903	4.15224311777	;
JU761	7074.9092399	3.88444057711	;
JU762	7089.63875442	4.32331905601	;
JU763	7065.65042318	5.61717363281	;
JU764	7058.58812565	5.52573663773	;
JU765	7089.34857133	6.0157466833	;
JU766	7107.17964583	6.22528071875	;
JU767	7059.09170301	5.36960177357	;
JU768	7096.37140806	5.71279638056	;
JU769	7098.01957292	6.50758213542	;
JU770	7066.57833333	6.46383444444	;
JU771	7099.80961735	5.92641604552	;
JU772	7081.7393778	3.69237838626	;
JU773	7118.71451319	4.29517673278	;
JU774	7079.10440972	4.62945479167	;
JU775	7061.16435185	4.6618587963	;
JU776	7108.84009648	5.12910672669	;
JU777	7132.68951389	5.4984024537	;
JU778	7133.07413158	5.30443038874	;
JU779	7082.4007073	5.33398626543	;
JU780	7124.41283689	5.61799537037	;
JU781	7116.16959675	5.84026710991	;
JU782	7117.42020636	4.50384453814	;
JU783	7060.53029401	4.03753840081	;
JU784	7086.35454861	4.489528125	;
JU785	7080.43345268	2.98989196866	;
JU786	7066.42316376	3.95474992918	;
JU787	7089.08839516	4.54238301119	;
JU788	7048.06653465	5.18050097177	;
JU789	7136.24679178	6.45812016406	;
JU790	7037.36593795	3.77044242716	;
JU791	7039.1911988	4.17194598086	;
JU792	7119.10532581	4.43778133425	;
JU793	7048.53809259	4.93419974537	;
JU794	7088.67476852	5.75681944444	;
JU795	7094.68894037	2.79046637386	;
JU796	7117.72283135	3.70749017797	;
JU797	7064.4165817	4.59462959748	;
JU798	7094.71071773	3.17453490211	;
JU799	7142.36444504	4.8373627133	;
JU800	7049.60538194	7.11765225694	;
JU801	7125.47830806	2.23534621543	;
JU802	7085.15024802	2.7606520172	;
JU803	7085.36548797	3.52132088332	;
JU804	7075.6046782	4.96416411417	;
JU805	7092.48180437	4.46022906522	;
JU806	7135.41121628	4.43482393919	;
JU807	7132.200627	4.49494321172	;
JU808	7089.17920346	2.92476986168	;
JU809	7122.05816051	5.31584298088	;
JU810	7086.0625	4.24975694444	;
JU811	7094.29012346	5.98603395062	;
JU812	7061.11359977	1.85849835654	;
JU813	7094.37666321	2.60842353733	;
JU814	7082.5511091	2.72450020092	;
JU815	7102.67953717	5.12362396759	;
JU816	7123.79111111	2.46717055556	;
JU817	7046.17194179	3.60985454451	;
JU818	7134.69674561	2.44563785278	;
JU819	7067.25030864	4.45685115741	;
JU820	7046.17194179	3.60985454451	;
JU821	7047.28611111	4.91164444444	;
JU822	7061.44214862	3.04507124204	;
JU823	7085.69887186	4.94219202932	;
JU824	7094.48221918	5.12606560881	;
JU825	7044.00013719	3.55327312699	;
JU826	7050.48331915	3.21496174877	;
JU827	7112.48623674	4.98490451718	;
JU828	7113.72070312	3.43257864583	;
JU829	7056.9472284	1.94420460369	;
JU830	7098.29499134	3.68041876829	;
JU831	7126.07830929	4.38218331522	;
JU832	7067.74104938	4.30559836034	;
JU833	7105.09306679	20.5778982972	;
JU834	7148.25974151	5.63691180556	;
JU835	7079.00132823	4.80025307388	;
JU836	7149.23498585	5.94975725309	;
JU837	7129.77534161	4.98635975579	;
JU838	7138.17904092	6.10157954107	;
JU839	7141.88786292	5.91135624247	;
JU840	7105.01791878	4.35659594515	;
JU841	7100.74835709	4.43466378854	;
JU842	7044.8681059	3.77305378583	;
JU843	7069.89209595	5.71617680081	;
JU844	7166.68787037	2.77188537037	;