[TITLE]
Generated synthetic network;

[JUNCTIONS]
;ID	Elev	Demand	Pattern
JU2	7053.68632716	3.688524357	;
JU4	7044.23373843	1.98050694444	;
JU5	7050.56529225	3.00118229167	;
JU6	7054.61527778	4.73501087963	;
JU7	7090.44444444	3.38551851852	;
JU8	7065.64262191	4.32305575397	;
JU9	7040.0762963	4.04611805556	;
JU10	7090.48569959	4.93564691358	;
JU11	7065.26769792	4.81355138194	;
JU12	7082.93845713	3.52462650383	;
JU13	7086.68311053	2.92174088404	;
JU14	7069.61347943	3.87784906475	;
JU15	7069.17117851	3.91048690232	;
JU17	7031.68111229	2.40046795303	;
JU18	7096.48096474	2.16888393175	;
JU19	7115.625	6.7795	;
JU20	7112.82088068	3.30645870671	;
JU21	7056.67157118	2.43078229167	;
JU22	7102.86729401	4.96113071532	;
JU23	7088.71852902	3.71110206882	;
JU24	7088.72197999	3.08519603197	;
JU25	7105.78339506	2.9373088179	;
JU26	7107.10199794	1.79808783642	;
JU27	7102.82956497	1.92864270347	;
JU28	7102.25793521	2.01815510963	;
JU29	7094.58072179	2.40098072707	;
JU30	7042.92225738	3.54838707833	;
JU31	7018.95087063	4.30767048097	;
JU32	7058.77013333	4.66824702778	;
JU33	7063.96090673	5.0079731784	;
JU34	7040.43819953	2.56324929073	;
JU35	7086.98119213	3.84626292438	;
JU36	7063.67382009	4.3929155682	;
JU37	7063.1752564	4.57591761242	;
JU38	7083.59777657	2.29282378622	;
JU39	7115.79904428	3.71847984481	;
JU41	7054.03257073	3.95526470679	;
JU42	7103.13738449	5.3726613966	;
JU43	7036.66194059	4.42955328897	;
JU44	7038.89899716	3.62601062787	;
JU45	7068.71219705	4.04185769714	;
JU46	7095.688	4.88350855556	;
JU47	7100.00822778	6.14623088519	;
JU48	7055.647892	2.97293765012	;
JU49	7093.27782155	5.94977036826	;
JU50	7086.78613144	4.65175790565	;
JU51	7085.30230302	4.82377472575	;
JU52	7069.86232349	3.77817538521	;
JU53	7098.91669772	5.66504218138	;
JU54	7059.57418654	5.4275685419	;
JU55	7146.80347222	3.13527268519	;
JU56	7066.21168177	4.83243006465	;
JU57	7052.35911116	3.65308759842	;
JU58	7081.37240388	3.87118236887	;
JU59	7084.3840535	6.95877377267	;
JU60	7074.2154397	2.03815076924	;
JU61	7112.5676368	2.85622735202	;
JU62	7102.12383281	3.58825826964	;
JU63	7074.07291667	1.68395833333	;
JU64	7075.66718883	2.93185129793	;
JU65	7124.44361111	3.93141277778	;
JU66	7082.77534803	2.84096363761	;
JU67	7080.30066856	3.91266086206	;
JU68	7063.33821217	2.53257895736	;
JU69	7110.98937252	2.17321111111	;
JU70	7056.31598508	5.76469485597	;
JU71	7109.35475823	6.37861856996	;
JU72	7077.08086227	6.74728475694	;
JU73	7086.25113831	4.50464041667	;
JU74	7119.55115863	4.18279203813	;
JU75	7192.63248028	3.46080426955	;
JU76	7116.71600116	3.71552835648	;
JU77	7097.67579882	2.03200618386	;
JU78	7070.00035252	4.38308046465	;
JU79	7011.26982542	4.90238010224	;
JU80	7097.30814447	2.71289376653	;
JU81	7116.18751323	3.4275026455	;
JU82	7150.81311728	3.05017274949	;
JU83	7154.07022569	2.75144027778	;
JU84	7089.14671202	2.70914939531	;
JU85	7135.99884259	2.61909259259	;
JU86	7155.83727778	1.96442622222	;
JU87	7130.26453727	1.60880979652	;
JU88	7128.57748843	5.01104691358	;
JU89	7120.175	2.25445	;
JU90	7119.38523341	4.67852025463	;
JU91	7128.32575071	4.35062201003	;
JU92	7091.74921544	3.13961917769	;
JU93	7090.66962963	3.73125777778	;
JU94	7089.55544771	2.88939602443	;
JU95	7084.24982632	3.42269965762	;
JU96	7111.27666178	3.34273331947	;
JU97	7106.68528656	2.82415638209	;
JU98	7091.23016104	2.93428483004	;
JU99	7084.27204242	2.35478683776	;
JU100	7084.69097222	7.09132638889	;
JU101	7121.56604056	4.47592077363	;
JU102	7088.54907743	3.00810123951	;
JU103	7102.9008219	2.84596344515	;
JU104	7083.53385375	2.18603004278	;
JU105	7128.94265432	4.03432796296	;
JU106	7132.65271065	4.10911968056	;
JU107	7047.88736979	0.4885625	;
JU108	7074.07201582	2.92809280093	;
JU109	7136.08479577	4.15162068383	;
JU110	7059.67986111	3.86631944444	;
JU111	7099.65526485	2.04876331761	;
JU112	7084.36262382	4.15417319841	;
JU113	7052.36998457	5.01980401235	;
JU114	7120.26685417	6.06271956944	;
JU115	7055.48167485	3.55357584934	;
JU116	7128.87483796	2.06758849537	;
JU117	7083.13307755	1.96589643342	;
JU118	7104.51918242	6.51324241255	;
JU119	7103.70833333	1.792125	;
JU120	7100.96655901	4.94498443572	;
JU121	7078.64392464	3.21262149588	;
JU122	7070.04949846	2.92024074074	;
JU123	7062.85311387	5.13401421228	;
JU124	7050.69735613	3.65936843771	;
JU125	7071.76010684	4.66451750221	;
JU126	7125.85933346	2.26566205125	;
JU127	7083.7890625	5.3399375	;
JU128	7162.65277778	6.94352777778	;
JU129	7056.25578704	3.74246759259	;
JU130	7125.30272519	4.49947347557	;
JU131	7107.94392399	3.14693140747	;
JU132	7109.92133195	2.84604725055	;
JU133	7062.61236533	2.16671717134	;
JU134	7076.73577836	2.53574112654	;
JU135	7089.72530864	3.7963904321	;
JU136	7109.77353395	5.26669135802	;
JU137	7126.82762346	4.0701029321	;
JU138	7105.01508146	6.90780675717	;
JU139	7115.06682453	3.92138838557	;
JU140	7121.85028262	3.87693198609	;
JU141	7125.2890625	4.9873125	;
JU142	7127.840285	3.11313226444	;
JU143	7070.20836232	4.80481584782	;
JU144	7070.10315903	3.83203726655	;
JU145	7076.78048207	4.61339725391	;
JU146	7053.36664249	3.94588620319	;
JU147	7044.16648325	3.17741859407	;
JU148	7045.35244331	3.03040758066	;
JU149	7058.80166242	3.38803834913	;
JU150	7072.32692909	3.4813335643	;
JU151	7090.8643888	1.8306531455	;
JU152	7066.8824918	2.95908296682	;
JU153	7065.12038253	4.77191400228	;
JU154	7119.52133333	5.13494126984	;
JU155	7049.4743028	3.59419077825	;
JU156	7147.67592593	3.80911606867	;
JU157	7122.10138155	5.43189926209	;
JU158	7097.79313754	3.81510311024	;
JU159	7114.49586556	5.18389883524	;
JU160	7093.78775964	4.69323524624	;
JU161	7144.561699	1.34930790711	;
JU162	7074.01639352	7.46100721296	;
JU163	7089.7816358	0.383240740741	;
JU164	7040.5	2.885765625	;
JU165	7073.47356047	3.96209649884	;
JU166	7073.82696759	4.54030555556	;
JU167	7139.89041111	1.01031204444	;
JU168	7037.35928917	2.16565860368	;
JU169	7082.7265447	6.07694379171	;
JU170	7072.18208237	4.03318372939	;
JU171	7008.96090278	3.89622777778	;
JU172	7036.15020525	3.24541585703	;
JU173	7115.05016091	5.05568964402	;
JU174	7069.63033013	4.39427733595	;
JU175	7071.33434066	2.94322339231	;
JU176	7126.52668204	5.71884827728	;
JU177	7078.5808642	3.14296244856	;
JU178	7067.45599841	2.2199662313	;
JU179	7078.50516199	4.29163746648	;
JU180	7035.31525463	3.79499976852	;
JU181	7065.12325797	4.34286306533	;
JU182	7101.460343	5.74585230463	;
JU183	7090.15549184	3.7012812896	;
JU184	7095.67894061	2.22781591224	;
JU185	7050.61037809	4.73555393519	;
JU186	7097.85433634	4.81799548395	;
JU187	7065.67345936	3.15504917181	;
JU188	7016.02880498	5.03207664931	;
JU189	7058.08725727	4.32301400825	;
JU190	7028.25231481	3.78766203704	;
JU191	7037.01620306	3.6850207356	;
JU192	7077.83591497	2.62591477058	;
JU193	7091.04899384	2.44527608486	;
JU194	7122.37024281	4.68493713833	;
JU195	7139.00681327	6.07998918775	;
JU196	7093.00332113	3.95415270911	;
JU197	7064.18680941	5.58401733642	;
JU198	7065.56996721	5.70685589043	;
JU199	7121.14701265	2.92147124816	;
JU200	7137.97395833	2.81133333333	;
JU201	7103.92644586	2.34917415365	;
JU202	7106.81638932	4.66183821674	;
JU203	7157.06873915	1.73959505208	;
JU204	7070.40860676	2.82071070158	;
JU205	7041.4563914	3.6816088693	;
JU206	7081.40496148	2.41474576823	;
JU207	7085.25370094	6.02096708373	;
JU208	7081.54708405	5.12994137897	;
JU209	7085.02201712	2.18916566397	;
JU210	7086.70442099	3.83284068877	;
JU211	7058.45254361	2.56054642581	;
JU212	7078.3577558	2.14493750441	;
JU213	7057.78728357	4.63006764251	;
JU214	7074.69975582	3.69576735995	;
JU215	7109.66785875	5.09266748879	;
JU216	7061.21689815	2.07037847222	;
JU217	7090.95773079	5.90759622269	;
JU218	7090.61442216	3.22062441517	;
JU219	7044.84284137	5.6665158631	;
JU220	7080.59815538	3.456590625	;
JU221	7085.79322359	4.40131491632	;
JU222	7075.34305556	4.0741	;
JU223	7084.14414497	4.14498877568	;
JU224	7027.84258178	4.39712955385	;
JU225	7081.75537487	4.0742687671	;
JU226	7088.3480073	5.4097944151	;
JU227	7099.64005556	5.40305005556	;
JU228	7104.36306906	3.23289821429	;
JU229	7110.4210617	2.78932872328	;
JU230	7102.73216564	5.78625736626	;
JU231	7106.49332672	2.83183942946	;
JU232	7074.85762985	4.58233109086	;
JU233	7116.12267222	5.64935366875	;
JU234	7051.02714706	2.62174254679	;
JU235	7122.60410083	3.36524153346	;
JU236	7100.14878424	5.26737504127	;
JU237	7096.69467903	2.05092285053	;
JU238	7065.83362474	3.53943405129	;
JU239	7102.60699881	3.25092080883	;
JU240	7103.37660419	4.04896374139	;
JU241	7089.54418035	2.82329397454	;
JU242	7066.15630142	2.56616354025	;
JU243	7053.79835648	2.42022041667	;
JU244	7095.41842299	4.28094362783	;
JU245	7116.92235725	2.26634104938	;
JU246	7100.09590799	3.30583435748	;
JU247	7084.85661087	2.32650407292	;
JU248	7106.403125	2.04490555556	;
JU249	7081.91057819	2.13151938272	;
JU250	7087.81703577	5.9914344839	;
JU251	7058.8396862	3.25587057248	;
JU252	7068.3201009	2.56223778953	;
JU253	7037.69712883	2.7875841133	;
JU254	7064.35758102	5.46768356481	;
JU255	7138.64241182	1.86315883598	;
JU256	7118.27906271	2.2409755535	;
JU257	7100.86463523	4.26687083974	;
JU258	7120.55625	3.0784	;
JU259	7115.34508464	2.60163628472	;
JU260	7106.51818378	3.64403700532	;
JU261	7115.99396447	3.83806365526	;
JU262	7073.97974804	3.3498706473	;
JU263	7118.86111111	6.44309259259	;
JU264	7122.45626286	6.14018892318	;
JU265	7119.10627873	4.46067675058	;
JU266	7019.52777778	2.45788888889	;
JU267	7091.6598446	4.22403332152	;
JU268	7091.06863622	4.31366602914	;
JU269	7068.46193686	3.57439745165	;
JU270	7102.88604323	4.65522955957	;
JU271	7125.41547374	2.50759306892	;
JU272	7117.52569154	1.77663588777	;
JU273	7122.88942158	2.25160960412	;
JU274	7105.74380631	3.55203861612	;
JU275	7094.94379131	4.02617751131	;
JU276	7042.1185274	3.36952301259	;
JU277	7060.28769146	3.78340808267	;
JU278	7103.64176384	1.12110509645	;
JU279	7030.85740741	2.92260740741	;
JU280	7054.943058	3.5093506358	;
JU281	7097.08529813	5.74946435412	;
JU282	7081.84655103	2.661183893	;
JU283	7102.41681255	3.5302223706	;
JU284	7078.57051505	2.59874035494	;
JU285	7084.46294207	1.63060906619	;
JU286	7070.84428143	4.40023944083	;
JU287	7077.48468412	2.94895417123	;
JU288	7044.84284137	5.6665158631	;
JU289	7084.08671637	4.51596148404	;
JU290	7087.57207568	4.20597593041	;
JU291	7059.99172222	2.45941183333	;
JU292	7051.82326133	3.51396954328	;
JU293	7053.82490092	3.08752201246	;
JU294	7043.04224537	3.22354046103	;
JU295	7109.01566358	6.60172253086	;
JU296	7084.70232333	3.74446032246	;
JU297	7092.44305556	5.29403055556	;
JU298	7109.65639017	3.96998390922	;
JU299	7084.91046197	4.64647932391	;
JU300	7104.73516429	5.43860531764	;
JU301	7039.26669371	2.6534358322	;
JU302	7090.34883755	4.61443514718	;
JU303	7110.66890852	4.04224258833	;
JU304	7024.74730469	4.67128288658	;
JU305	7082.92419271	4.44213466146	;
JU306	7084.34407552	7.13656510417	;
JU307	7081.65917963	3.87064496593	;
JU308	7109.43131215	4.32240815441	;
JU309	7073.80792527	1.68329269749	;
JU310	7120.22309601	3.78660458984	;
JU311	7142.35081597	5.68505596892	;
JU312	7088.29525157	4.36171987876	;
JU313	7101.54233102	4.78821318555	;
JU314	7046.87954347	3.95204646348	;
JU315	7057.8679014	3.24774785505	;
JU316	7115.84306462	3.77047499711	;
JU317	7063.20198519	2.89783077177	;
JU318	7088.6955807	4.86548176223	;
JU319	7100.02415766	3.96982029321	;
JU320	7057.07066553	4.21151273761	;
JU321	7101.96656057	4.23257471065	;
JU322	7094.35019729	2.74449758898	;
JU323	7132.62185185	4.1489480463	;
JU324	7143.87164866	4.37661521296	;
JU325	7075.41064453	4.13378624855	;
JU326	7082.97293656	3.98506882957	;
JU327	7110.08896123	3.53772222222	;
JU328	7102.6070425	3.98356251929	;
JU329	7064.62105248	4.85925415098	;
JU330	7064.76591335	4.21381592239	;
JU331	7087.38205355	4.03873618345	;
JU332	7069.51736111	3.73329513889	;
JU333	7108.33300883	4.41951766751	;
JU334	7105.03993056	0.677145833333	;
JU335	7146.27153131	5.66226267001	;
JU336	7121.21713769	5.3298487464	;
JU337	7084.42517904	4.91252136285	;
JU338	7102.66418324	5.5046033942	;
JU339	7106.8685047	5.12049918673	;
JU340	7085.94752701	5.0410332973	;
JU341	7088.29525157	4.36171987876	;
JU342	7063.20198519	2.89783077177	;
JU343	7153.07050772	2.83901455453	;
JU344	7092.75030017	4.93417102842	;
JU345	7108.44247035	4.94121938709	;
JU346	7065.37347119	3.69215169053	;
JU347	7071.60762891	2.31563378877	;
JU348	7049.1469315	3.20194288143	;
JU349	7101.59413132	2.04580624793	;
JU350	7100.40625	4.62639409722	;
JU351	7150.01770833	3.64933839286	;
JU352	7081.76718428	5.33291859568	;
JU353	7124.36662297	1.07026442809	;
JU354	7049.32565104	1.79408187211	;
JU355	7098.4426181	3.77932365037	;
JU356	7081.56336407	4.36158493699	;
JU357	7046.73671169	3.61758927681	;
JU358	7141.22239583	2.90027152778	;
JU359	7103.16231846	2.89126756859	;
JU360	7094.31477431	1.78709928819	;
JU361	7104.69020906	2.06018639275	;
JU362	7071.47714074	3.10925072922	;
JU363	7059.33763972	3.09369375227	;
JU364	7064.09283297	3.35810566769	;
JU365	7117.22315787	5.07255877617	;
JU366	7076.19131433	3.85032458533	;
JU367	7072.7106005	4.16131930278	;
JU368	7064.46957672	3.57457671958	;
JU369	7102.34755976	3.14517838365	;
JU370	7089.37848328	2.93983711659	;
JU371	7058.55743276	4.20137791565	;
JU372	7062.29946334	3.90083527171	;
JU373	7126.55531451	4.59424038777	;
JU374	7102.93169343	3.42008066608	;
JU375	7076.35306083	3.52310790412	;
JU376	7055.61111111	5.03155555556	;
JU377	7043.2539165	4.48186270435	;
JU378	7090.99613252	4.17932092766	;
JU379	7033.99749228	4.69347839506	;
JU380	7076.12419946	2.51474138374	;
JU381	7080.8139289	4.23537714335	;
JU382	7103.38085949	3.28017303538	;
JU383	7107.4166377	3.06090400324	;
JU384	7067.65128968	3.10833680556	;
JU385	7080.45312658	3.32365065456	;
JU386	7085.9619833	4.74884033358	;
JU387	7096.352372	3.16897132202	;
JU388	7098.92534914	3.0894679784	;
JU389	7111.60346801	4.30333970539	;
JU390	7079.13985898	4.03947442679	;
JU391	7122.41094393	4.88774099794	;
JU392	7151.76292438	5.44189891975	;
JU393	7044.87740605	3.46284600178	;
JU394	7077.73958333	4.48158333333	;
JU395	7073.92583333	6.00004666667	;
JU396	7142.45877425	5.90361298501	;
JU397	7103.53302104	2.65973146164	;
JU398	7119.06990741	6.38926203704	;
JU399	7125.45690862	4.34338932981	;
JU400	7071.34007909	4.51368130273	;
JU401	7059.675	5.44978333333	;
JU402	7102.38057407	0.983949358025	;
JU403	7084.00667346	5.66432150435	;
JU404	7091.49634831	2.94925042148	;
JU405	7107.30957226	2.7121812755	;
JU406	7028.57556906	6.06160455247	;
JU407	7097.84127734	3.68943028307	;
JU408	7127.27652659	1.73839545662	;
JU409	7143.27225679	3.16029379753	;
JU410	7076.20682317	1.62561131939	;
JU411	7114.62237172	1.74946574074	;
JU412	7108.60916667	4.32658333333	;
JU413	7056.90317564	1.02886863426	;
JU414	7127.15371458	4.09244646935	;
JU415	7056.24791452	3.40553714523	;
JU416	7090.90343878	2.99232962165	;
JU417	7082.62151582	4.8368063878	;
JU418	7137.01339043	4.54209879784	;
JU419	7111.28451674	6.01997991682	;
JU420	7080.63972045	2.75235852466	;
JU421	7119.28908901	4.99737409014	;
JU422	7076.04802358	3.30075340165	;
JU423	7065.25025434	3.8208459113	;
JU424	7121.92326268	4.37238614867	;
JU425	7105.3778232	3.62983513623	;
JU426	7100.09844354	1.52462729749	;
JU427	7080.34695988	1.94056538066	;
JU428	7099.55883333	1.69499285185	;
JU429	7046.06914545	2.96350154562	;
JU430	7106.80497066	3.4660911016	;
JU431	7055.71460744	3.46121268458	;
JU432	7126.63828111	4.57976175118	;
JU433	7051.59430406	3.46054116263	;
JU434	7140.23009259	6.48461717593	;
JU435	7076.66404045	3.21019725367	;
JU436	7126.34402006	2.87167924383	;
JU437	7045.13806414	3.65117965974	;
JU438	7091.16465169	3.18294519586	;
JU439	7064.8256589	3.29547909792	;
JU440	7130.64381993	4.96874920267	;
JU441	7059.58501157	1.98111371528	;
JU442	7078.04606481	2.7211412037	;
JU443	7093.76670387	3.65832109788	;
JU444	7128.09982181	4.426453	;
JU445	7100.1625	2.0305	;
JU446	7079.38164233	5.07510889251	;
JU447	7073.02490542	3.44183773465	;
JU448	7062.05252971	2.34013600482	;
JU449	7086.01851852	1.94148148148	;
JU450	7081.08151993	4.51110656457	;
JU451	7050.30389473	3.49915395508	;
JU452	7119.65631301	5.17143524691	;
JU453	7105.15320133	2.03283865871	;
JU454	7086.11267335	2.97185170041	;
JU455	7126.91232639	1.77489282407	;
JU456	7078.66975309	2.46754115226	;
JU457	7073.02490542	3.44183773465	;
JU458	7082.23626263	4.97782751914	;
JU459	7104.38086502	3.72456600492	;
JU460	7055.647892	2.97293765012	;
JU461	7098.42617863	2.937791268	;
JU462	7094.58072179	2.40098072707	;
JU463	7108.77780424	1.28259646961	;
JU464	7058.4922092	3.97085980489	;
JU465	7051.3492626	3.74897252584	;
JU466	7077.78584197	5.48426950122	;
JU467	7096.94694889	1.97421142526	;
JU468	7102.67542747	4.61079424439	;
JU469	7067.30871817	6.14863205818	;
JU470	7070.07130961	4.06833818854	;
JU471	7142.47583889	6.75225688795	;
JU472	7069.98517589	1.55967712476	;
JU473	7089.9200426	3.27180641011	;
JU474	7114.52260643	4.62351379233	;
JU475	7093.00076114	3.4368536784	;
JU476	7089.87227363	4.75251844564	;
JU477	7061.34491565	3.16356788018	;
JU478	7074.19714612	2.70269633237	;
JU479	7056.41625016	4.04654649724	;
JU480	7080.39191173	3.30648828756	;
JU481	7079.44492047	3.90854097645	;
JU482	7087.93433571	5.6755307068	;
JU483	7089.97670972	6.16434484167	;
JU484	7092.06199684	4.08849044231	;
JU485	7100.40728202	2.44761651235	;
JU486	7126.38541667	3.15589583333	;
JU487	7048.43395088	3.4807102982	;
JU488	7049.22926295	3.45371734491	;
JU489	7067.26142661	3.8050231893	;
JU490	7058.35765873	2.8416990873	;
JU491	7086.17323627	3.19313224376	;
JU492	7097.64328897	2.36921227844	;
JU493	7099.74131944	2.473375	;
JU494	7146.31459513	5.75334861283	;
JU495	7155.06354757	5.52694166753	;
JU496	7093.13782088	4.49648566872	;
JU497	7100.18220652	1.57631696293	;
JU498	7106.20800412	3.68603012346	;
JU499	7079.53666414	2.80253751372	;
JU500	7099.02101092	2.90327681288	;
JU501	7087.73133802	4.90537832802	;
JU502	7093.92710991	4.63698954661	;
JU503	7036.82376543	3.06319354424	;
JU504	7127.64468595	4.11716088882	;
JU505	7118.91670896	2.23348771914	;
JU506	7068.60664683	3.30408478836	;
JU507	7060.80507446	3.96897156112	;
JU508	7079.81615242	5.47636580809	;
JU509	7108.45359239	3.35999070686	;
JU510	7083.87692901	2.67608333333	;
JU511	7131.05555556	1.34554074074	;
JU512	7059.46849829	3.34899219745	;
JU513	7093.74740173	2.55800093879	;
JU514	7125.08069616	1.91275829267	;
JU515	7102.15056584	1.51796084105	;
JU516	7094.44097437	1.22853658693	;
JU517	7102.15056584	1.51796084105	;
JU518	7092.11130508	0.805888663837	;
JU519	7106.16412246	2.13237460382	;
JU520	7090.05925005	2.63926585108	;
JU521	7090.12663548	4.29973673244	;
JU522	7124.52111304	4.65777170139	;
JU523	7097.73611111	8.10329166667	;
JU524	7122.15012554	4.79579587736	;
JU525	7064.48006841	5.07972866574	;
JU526	7138.33878781	5.63072040509	;
JU527	7143.91114738	5.27573451775	;
JU528	7080.04652778	6.435125	;
JU529	7118.97712966	4.76245686394	;
JU530	7140.69199994	5.75914856296	;
JU531	7140.69199994	5.75914856296	;
JU532	7131.23634977	5.57019480905	;
JU534	7058.39365008	3.91522917974	;
JU535	7133.2463307	2.61725348251	;
JU536	7098.29398148	6.69909259259	;
JU537	7104.49369679	3.11131522625	;
JU538	7144.06980613	3.32586031057	;
JU539	7136.56572185	3.28998585944	;
JU540	7087.74475221	4.79208045742	;
JU541	7090.52318824	4.08277061964	;
JU542	7163.23246926	6.04904207114	;
JU543	7125.93768519	2.58675111111	;
JU544	7072.21972729	2.30602628038	;
JU545	7099.61803291	3.41460185449	;
JU546	7063.14665522	5.05241433257	;
JU547	7094.47823329	4.53823642491	;
JU548	7116.62460494	3.81155239753	;
JU549	7111.14178627	2.84619267747	;
JU550	7068.02713477	3.58013014403	;
JU551	7130.77283649	5.37303617312	;
JU552	7090.5041088	3.77485792824	;
JU553	7110.76528863	4.50315911458	;
JU554	7080.61576039	3.39932801645	;
JU555	7110.7260687	2.06290502071	;
JU556	7086.16956116	2.51370193016	;
JU557	7091.68965406	4.20865407093	;
JU558	7137.4277181	3.61496061198	;
JU559	7053.83333333	6.96333333333	;
JU560	7078.04606481	2.7211412037	;
JU561	7064.06094915	2.80525833655	;
JU562	7092.5	4.152	;
JU563	7078.22816725	3.35869013296	;
JU564	7092.6040917	2.76924492716	;
JU565	7077.10151678	3.59354149876	;
JU566	7130.97887757	3.10123780052	;
JU567	7121.53003507	6.16841516075	;
JU568	7102.67471142	3.71764605148	;
JU569	7091.98124267	3.15281895332	;
JU570	7086.80154383	5.28311863496	;
JU571	7108.83884468	3.59957344715	;
JU572	7093.33672771	4.17029831372	;
JU573	7087.61270481	5.34454811903	;
JU574	7060.58897363	4.06690619654	;
JU575	7087.91045518	3.21532826298	;
JU576	7096.76796629	3.96724352503	;
JU577	7082.12928889	1.65852444444	;
JU578	7107.52171876	4.59796569726	;
JU579	7107.07171898	3.82788253969	;
JU580	7076.95983796	7.11711226852	;
JU581	7068.29165248	8.05652608873	;
JU582	7066.86631944	6.13269921875	;
JU583	7053.87214147	3.08628241319	;
JU584	7104.06212987	4.26484259742	;
JU585	7090.2910751	5.02798578181	;
JU586	7103.036386	4.71675665509	;
JU587	7102.96030208	5.3658262487	;
JU588	7108.15625	2.35302083333	;
JU589	7087.81703577	5.9914344839	;
JU590	7066.56628806	2.96094591068	;
JU591	7159.51222222	5.916615	;
JU592	7091.11337926	4.08459257202	;
JU593	7095.688	4.88350855556	;
JU594	7101.42120556	5.62378403194	;
JU595	7095.82654136	5.59342829987	;
JU596	7102.09625432	5.76605483544	;
JU597	7077.0736036	4.05863497586	;
JU598	7070.17348843	4.85436140741	;
JU599	7078.1005291	2.36645820106	;
JU600	7056.25578704	3.74246759259	;
JU601	7086.20764815	1.66165362593	;
JU602	7082.35455628	5.78377755099	;
JU603	7132.60827546	4.25618037037	;
JU604	7076.42998891	2.52524125514	;
JU605	7129.60287725	5.78962884999	;
JU606	7125.69557847	4.26406834664	;
JU607	7116.34000073	4.74105834509	;
JU608	7091.71060449	5.0717788944	;
JU609	7065.11014032	3.06839219295	;
JU610	7108.71611111	4.0255862963	;
JU611	7108.77483671	5.60186043291	;
JU612	7080.22903953	2.89321175711	;
JU613	7056.79730421	4.1098029321	;
JU614	7084.13525849	6.47660986952	;
JU615	7050.72739202	4.68704409014	;
JU616	7082.28334751	4.60424379252	;
JU617	7086.25	7.331	;
JU618	7086.89747471	3.05113183107	;
JU619	7118.07534288	2.62587109375	;
JU620	7142.39451646	5.54875	;
JU621	7091.71265844	3.61922592714	;
JU622	7066.1284289	3.47542068194	;
JU623	7105.11038773	2.59933203125	;
JU624	7039.41414312	2.96118798257	;
JU625	7112.02180556	3.991625	;
JU626	7112.34495885	3.47871841564	;
JU627	7094.48607896	3.6423205607	;
JU628	7060.37784045	3.52955743621	;
JU629	7071.00778349	2.06925056737	;
JU630	7084.45139853	5.08949251543	;
JU631	7123.20652376	4.37510989074	;
JU632	7095.79859159	3.19719993141	;
JU633	7101.81828263	3.15242045202	;
JU634	7106.34263762	2.92087502373	;
JU635	7102.10567583	2.9677965068	;
JU636	7095.79859159	3.19719993141	;
JU637	7093.23640046	2.75489376653	;
JU638	7080.07008647	3.18550458523	;
JU639	7109.79900977	3.56298135288	;
JU640	7094.74071209	3.18450865994	;
JU641	7061.71502058	3.85929972565	;
JU642	7092.0936397	3.47829221294	;
JU643	7052.82478852	3.43453977925	;
JU644	7058.85883219	3.37745607476	;
JU646	7036.97581679	5.59046458459	;
JU647	7067.80588716	3.41160949442	;
JU648	7072.79443611	3.34386637574	;
JU649	7059.53658773	5.47013825957	;
JU650	7060.78384002	4.06625111975	;
JU651	7053.27435089	3.45851773148	;
JU652	7102.99523657	3.81819054527	;
JU653	7080.51216242	4.33679266204	;
JU654	7028.5991358	2.6569958642	;
JU655	7077.41903935	6.70638657407	;
JU656	7100.75880285	2.61121978241	;
JU657	7058.59449355	6.06013507295	;
JU658	7127.99594907	1.48488888889	;
JU659	7067.35087963	3.68812148148	;
JU660	7074.92389023	3.00399096505	;
JU661	7102.24702127	2.48772749423	;
JU662	7082.6089385	3.54621771209	;
JU663	7093.33978718	3.38206417966	;
JU664	7085.25370094	6.02096708373	;
JU665	7060.11372613	3.80841601356	;
JU666	7106.7671897	1.92798779313	;
JU667	7111.61689872	3.68077960682	;
JU668	7071.74289834	4.85717053526	;
JU669	7100.06486543	2.84618501641	;
JU670	7109.45836965	4.32098525243	;
JU671	7101.64185233	2.84239836516	;
JU672	7098.38821373	4.07491839313	;
JU673	7097.51190725	5.75466673673	;
JU674	7070.64578725	5.68736621504	;
JU675	7051.38337309	3.23638951907	;
JU676	7093.16841545	3.3537360108	;
JU677	7111.31740169	2.84310163459	;
JU678	7110.1214045	4.72913172212	;
JU679	7113.6988287	3.42023097098	;
JU680	7036.34250468	2.18181427144	;
JU681	7083.4902878	5.22704266384	;
JU682	7099.77590044	2.64268217909	;
JU683	7068.41732272	5.30535633028	;
JU684	7082.69407137	2.82988114559	;
JU685	7087.34769385	3.04880873843	;
JU686	7070.2315081	4.4314209538	;
JU687	7080.34664001	3.53705322671	;
JU688	7051.75354167	4.132195	;
JU689	7115.48592643	2.67090912423	;
JU690	7060.43694737	3.57179112613	;
JU691	7049.73103031	3.61683691324	;
JU692	7084.61942524	2.4756424417	;
JU693	7179.70018326	5.86490741641	;
JU694	7145.96552083	4.811279375	;
JU695	7149.56320422	6.43664117427	;
JU696	7095.46137572	3.68168224741	;
JU697	7099.34285844	4.27479021385	;
JU698	7059.975	2.63867222222	;
JU699	7083.5879704	3.1937831713	;
JU700	7064.72923674	3.6854144473	;
JU701	7099.29998264	4.60657665799	;
JU702	7042.57074308	2.68526383024	;
JU703	7047.24006515	3.38005685267	;
JU704	7112.43083602	4.43770891999	;
JU705	7041.5733025	3.1968705337	;
JU706	7040.37847029	4.73134637389	;
JU707	7056.72775232	3.22412340453	;
JU708	7036.73992933	2.38926928917	;
JU709	7042.57074308	2.68526383024	;
JU710	7122.61666204	4.29637685185	;
JU711	7089.01348336	3.94370533499	;
JU712	7097.45877313	2.62302950502	;
JU713	7061.90323399	4.90928903614	;
JU714	7091.06705641	3.21224312988	;
JU715	7096.60349609	5.0887592347	;
JU716	7101.66007175	3.32045429844	;
JU717	7075.81028389	1.85296419363	;
JU718	7062.40229862	4.42732384497	;
JU719	7109.12607253	3.05732014969	;
JU720	7095.8671875	4.65271875	;
JU721	7053.20957873	4.05110562295	;
JU722	7086.3606916	3.47120236929	;
JU723	7081.25035843	2.88306181461	;
JU724	7088.25382404	3.64487307956	;
JU725	7066.37493074	3.43363248956	;
JU726	7086.99160214	2.51629246851	;
JU727	7078.37150112	4.41435749582	;
JU728	7085.82431276	4.51798131516	;
JU729	7111.63507535	4.5954002036	;
JU730	7086.80356105	3.90989118347	;
JU731	7129.69884359	4.04493893772	;
JU732	7024.06345679	2.55744237654	;
JU733	7088.85071799	4.54043138141	;
JU734	7085.05998763	3.49707161839	;
JU735	7076.72433652	4.16506100833	;
JU736	7074.02727083	5.92750966667	;
JU737	7100.20297963	3.92408258244	;
JU738	7088.05333854	3.34849314059	;
JU739	7074.18185764	4.85808194444	;
JU740	7057.22757941	5.75073291038	;
JU741	7102.63541667	2.66254166667	;
JU742	7092.92024608	2.76206934685	;
JU743	7078.40591339	2.07194059799	;
JU744	7097.47662243	3.43878794386	;
JU745	7130.89122222	3.96807855556	;
JU746	7051.66481964	3.67686355453	;
JU747	7087.51769859	4.72543328559	;
JU748	7084.61942524	2.4756424417	;
JU749	7055.71460744	3.46121268458	;
JU750	7048.85420766	3.65089879115	;
JU751	7067.66657423	3.20815568737	;
JU752	7140.23009259	6.48461717593	;
JU753	7047.46940864	3.54708560344	;
JU754	7080.99549697	3.75215292611	;
JU755	7087.01320377	2.73005747106	;
JU756	7085.92325218	3.71877774771	;
JU757	7103.21992588	4.58641438175	;
JU758	7067.83731649	2.8013114934	;
JU759	7074.02274396	4.16287454365	;
JU760	7078.78691992	4.27950672399	;
JU761	7131.2566913	5.15662222443	;
JU762	7065.69899539	4.09817670701	;
JU763	7096.83926717	3.90823666415	;
JU764	7101.12314027	1.60041577626	;
JU765	7119.8712037	4.37187037037	;
JU766	7123.05008145	4.72330272291	;
JU767	7112.62545192	3.30996205015	;
JU768	7129.91571904	5.09386990741	;
JU769	7116.08294271	2.87922777778	;
JU770	7127.52277467	4.95773288537	;
JU771	7126.63158552	5.39726390532	;
JU772	7123.27045075	5.54848539095	;
JU773	7106.07291667	2.895125	;
JU774	7084.91253715	4.93502859488	;
JU775	7093.76733275	6.21281298945	;
JU776	7116.85362558	2.17828451389	;
JU777	7147.3936371	2.6767748615	;
JU778	7112.96934772	2.71854073667	;
JU779	7101.76290961	2.69031113516	;
JU780	7078.14368056	3.69835907118	;
JU781	7108.70395448	4.0556979784	;
JU782	7098.93679067	3.92436164191	;
JU783	7101.44221848	3.05110128133	;
JU784	7099.46819063	2.94823716322	;
JU785	7039.30428884	4.80585058192	;
JU786	7104.39450495	3.9214281566	;
JU787	7097.58183606	3.99309902732	;
JU788	7103.88649706	3.22405453386	;
JU789	7073.20477816	2.89496031034	;
JU790	7128.33567708	2.79393759645	;
JU791	7063.58903977	2.47359057343	;
JU792	7113.70243654	4.75306962315	;
JU793	7104.19661458	4.73604513889	;
JU794	7117.73238329	3.46284429012	;
JU795	7077.48856693	4.38736172923	;
JU796	7101.99017048	2.89056432774	;
JU797	7060.11372613	3.80841601356	;
JU798	7073.07892072	7.24435532407	;
JU799	7059.66663667	3.4684962913	;
JU800	7052.67397037	4.5189722963	;
JU801	7076.24586934	4.96778468107	;
JU802	7113.72027687	1.43961524926	;
JU803	7107.91517836	2.6420095204	;
JU804	7074.72561458	3.63707802006	;
JU805	7072.16975309	3.1762962963	;
JU806	7116.74233205	3.79495793232	;
JU807	7096.63795113	4.24711456809	;
JU808	7096.06920739	6.39236481053	;
JU809	7120.22675191	1.2006873616	;
JU810	7094.88420964	4.73642592335	;
JU811	7081.55140821	4.5008491021	;
JU812	7117.50002135	4.51291209823	;
JU813	7091.79509985	4.47253758965	;
JU814	7124.31278115	4.71296047598	;
JU815	7095.77395728	4.62674348643	;
JU816	7113.61650532	4.57797351807	;
JU817	7132.93429501	5.39380651661	;
JU818	7073.59136285	6.12346279762	;
JU819	7074.73581015	4.23542289886	;
JU820	7068.16429911	3.78680914351	;
JU821	7120.5015873	5.30703838384	;
JU822	7108.45359239	3.35999070686	;
JU823	7090.09027447	3.95562922711	;
JU824	7046.69755102	3.24986408163	;
JU825	7105.13723545	1.43192526455	;
JU826	7083.41110943	2.87395729255	;
JU827	7097.02281146	2.54791325645	;
JU828	7089.26308054	4.26939329806	;
JU829	7093.59699178	4.04793722994	;
JU830	7067.41370322	2.36800643748	;
JU831	7097.90693728	2.27613759202	;
JU832	7094.81440471	5.82081873583	;
JU833	7038.97844171	4.36119425477	;
JU834	7085.0023837	3.06008242287	;
JU835	7095.30899672	4.41142027331	;
JU836	7081.25035843	2.88306181461	;
JU837	7088.25382404	3.64487307956	;
JU838	7107.86450075	2.73220288146	;
JU839	7117.22315787	5.07255877617	;
JU840	7121.14701265	2.92147124816	;
JU841	7064.171655	2.94695932629	;
JU842	7049.95502691	3.7986473398	;
JU843	7107.47961516	4.33200197173	;
JU844	7100.97865479	3.85271160184	;
JU845	7125.06293403	3.59171701389	;
JU846	7106.67936898	2.92110360043	;
JU847	7117.89637587	2.82600231481	;
JU848	7055.17416288	3.39748238323	;
JU849	7112.62545192	3.30996205015	;