[TITLE]
Generated synthetic network;

[JUNCTIONS]
;ID	Elev	Demand	Pattern
JU2	7070.91180556	0.942104938272	;
JU3	7081.58333333	1.40566666667	;
JU4	7086.59722222	3.01958024691	;
JU5	7072.10648148	3.26037860082	;
JU6	7066.55092593	5.65597119342	;
JU7	7054.76388889	4.11287654321	;
JU8	7058.0	4.37318518519	;
JU9	7077.51678241	1.48217939815	;
JU11	7007.64119551	3.91519741655	;
JU12	7017.27395683	5.45682807142	;
JU13	7057.43109797	2.75791032236	;
JU14	7024.21763374	2.02585802469	;
JU15	7023.50395502	2.14209213931	;
JU16	7031.61045267	2.88807407407	;
JU17	7030.83486968	3.07657201646	;
JU18	7025.15316626	2.88071148088	;
JU19	6999.81424611	3.59790963649	;
JU20	7008.53019857	3.65952658941	;
JU21	7070.21834276	3.8404846965	;
JU22	7063.46662809	3.7315628858	;
JU23	7058.45781893	4.63152880658	;
JU24	7064.74657064	4.61078943759	;
JU25	7022.57699331	3.30299742798	;
JU26	7080.59243827	5.3453117284	;
JU27	7068.29012346	5.50869135802	;
JU28	7072.43909465	5.23702263374	;
JU29	7105.93730174	3.52022474066	;
JU30	7174.40922188	2.93187149161	;
JU31	7031.60493827	1.13427820645	;
JU32	7024.73148148	1.86993621399	;
JU33	7078.73942615	4.33264604767	;
JU34	7022.18348765	4.69447800926	;
JU35	7058.00781339	2.04123351766	;
JU36	7129.14641204	4.86126388889	;
JU37	7118.90641946	3.53066288902	;
JU38	7060.16712963	5.11422222222	;
JU39	7124.83060628	5.23638451646	;
JU40	7071.19215027	3.29034773663	;
JU41	7035.05648148	4.89540277778	;
JU42	7073.41728395	5.11217626886	;
JU44	7071.05185185	3.32051851852	;
JU45	7071.05061728	2.34338271605	;
JU46	7057.33333333	3.20044444444	;
JU47	7115.13333333	1.64340740741	;
JU48	7068.64403292	3.62747325103	;
JU49	7073.84567901	3.04350617284	;
JU50	7095.22993827	2.99329012346	;
JU51	7080.16272291	3.11826131687	;
JU52	7099.23139575	1.71108659122	;
JU53	7078.08256173	5.38000154321	;
JU54	7148.8070559	0.821637945816	;
JU55	7131.66966735	1.21557218793	;
JU56	7088.29243827	4.22556532922	;
JU57	7164.2037037	3.24377777778	;
JU58	7176.84567901	1.77325925926	;
JU59	7108.65554984	4.39501418419	;
JU60	7077.58101852	5.87511574074	;
JU61	7114.70195473	4.12243964335	;
JU62	7098.51646091	4.13035596708	;
JU63	7134.62962963	3.59508333333	;
JU64	7082.29044353	4.40680544124	;
JU65	7060.60464678	4.94754903978	;
JU66	7099.83333333	4.18088888889	;
JU67	7115.29050926	1.69350848765	;
JU68	7041.92525077	1.25832513503	;
JU69	7031.39478202	1.7293325778	;
JU70	7035.1574056	4.002464992	;
JU71	7081.44679355	5.33997822359	;
JU72	7062.65886086	3.22337389886	;
JU73	7107.95884059	3.51265590706	;
JU74	7021.15534979	1.77295884774	;
JU75	7000.45679012	0.819296296296	;
JU76	7051.16838134	2.02159053498	;
JU77	7080.3025897	2.07824582047	;
JU78	7081.15852865	5.0171164159	;
JU79	7080.05534122	3.48986213992	;
JU80	7117.07365773	5.30360638503	;
JU81	7138.45486111	3.8901724537	;
JU82	7026.5617284	2.39424074074	;
JU83	7031.9063786	3.59342978395	;
JU84	7130.3122428	2.46125445816	;
JU85	7127.49382716	3.24771399177	;
JU86	7136.98611111	3.20653703704	;
JU87	7135.39911265	2.79829038066	;
JU88	7120.75311857	4.17785103738	;
JU89	7136.28800154	1.78323688272	;
JU90	7127.13168724	3.06238888889	;
JU91	7137.00154321	2.64303703704	;
JU92	7126.42231439	2.17150535837	;
JU93	7072.2970679	0.245280864198	;
JU94	7101.47666667	3.47290123457	;
JU95	7074.33333333	2.81133333333	;
JU96	7086.00027778	6.40658333333	;
JU97	7055.33375	4.69004166667	;
JU98	7104.85092593	4.02583333333	;
JU99	7071.94635802	2.50633607682	;
JU100	7046.64611111	4.298	;
JU101	7112.3682356	3.29516769547	;
JU102	7072.77031893	0.591600308642	;
JU103	7053.89243827	2.40466975309	;
JU104	7057.66849566	3.32009853681	;
JU105	7073.073312	3.67339841488	;
JU106	7106.98058128	4.70897196502	;
JU107	7095.21347737	3.97043441358	;
JU108	7141.68608539	3.04100572274	;
JU109	7134.93428498	5.00502829218	;
JU110	7076.49937307	2.1661249357	;
JU111	7107.27968298	5.42932520449	;
JU112	7105.62299383	3.15082170782	;
JU113	7095.79140947	1.48852417695	;
JU114	7022.80848765	4.69447800926	;
JU115	7159.66255144	2.84250617284	;
JU116	7045.81692387	4.23660050154	;
JU117	7037.22427984	1.39340534979	;
JU118	7122.77057613	3.37284259259	;
JU119	7090.90658436	4.10232098765	;
JU120	7052.58833835	2.52348799011	;
JU121	7059.86496914	4.48109259259	;
JU122	7126.45042438	0.422183641975	;
JU123	7066.11345004	2.6004799865	;
JU124	7074.96100823	4.54038271605	;
JU125	7052.78765432	4.68710185185	;
JU126	7112.55632716	3.84288425926	;
JU127	7042.35981253	2.40842263946	;
JU128	7127.10053781	4.98067036126	;
JU129	7099.32929098	5.86731515775	;
JU130	7020.86431327	2.20034002058	;
JU131	7034.1714892	2.03296720679	;
JU132	7099.32929098	5.86731515775	;
JU133	7086.58333333	3.138375	;
JU134	7086.98813657	3.2799603588	;
JU135	7065.99247685	1.49995524691	;
JU136	7058.64197531	3.95172839506	;
JU137	7056.57218793	3.71770576132	;
JU138	7058.54166667	3.29851234568	;
JU139	7050.38833257	3.44357681756	;
JU140	7048.85802469	4.64041975309	;
JU141	7054.71885002	4.23582556013	;
JU142	7149.30864198	4.96770987654	;
JU143	7103.38543413	4.15614469339	;
JU144	7105.54205783	4.77805739883	;
JU145	7097.03168403	2.5988677662	;
JU146	7111.12925722	5.2643371428	;
JU147	7055.24933899	2.65136947016	;
JU148	7074.28905164	3.39728553669	;
JU149	7060.36271176	2.52079176669	;
JU150	7135.55555556	0.963518518519	;
JU151	7078.11565501	0.496153806584	;
JU152	7123.64101509	4.61600617284	;
JU153	7028.94922357	2.85242628924	;
JU154	7164.7037037	2.9602962963	;
JU155	7170.7038323	2.54115072016	;
JU156	7095.79140947	1.48852417695	;
JU157	7103.38543413	4.15614469339	;
JU158	7054.87037037	4.24882407407	;
JU159	7069.34236397	4.24945964792	;
JU160	7079.48616094	2.651094393	;
JU161	7075.71160837	4.48878120713	;
JU162	7074.79998821	4.11078759431	;
JU163	7072.83576389	5.3719542324	;
JU164	7063.30246914	3.84081893004	;
JU165	7083.96127186	3.30329243827	;
JU166	7089.01998778	2.06013794046	;
JU167	7081.31112076	3.91790779321	;
JU168	7070.66419825	4.87996441329	;
JU169	7063.49527392	3.84422533008	;
JU170	7042.34600051	2.38122286523	;
JU171	7120.14365131	3.24978001356	;
JU172	7058.42175593	4.42893071273	;
JU173	7040.50473997	4.07576831371	;
JU174	7021.42695473	2.9845569273	;
JU175	7020.96399177	2.27685733882	;
JU176	7027.531893	2.99330041152	;
JU177	7031.59149949	2.87438910322	;
JU178	7019.50685871	2.11950205761	;
JU179	7029.95175326	3.02179788237	;
JU180	7198.1484375	2.68436709105	;
JU181	7174.40922188	2.93187149161	;
JU182	7215.30642361	0.646803240741	;
JU183	7234.55208333	0.217604166667	;
JU184	7190.93098958	2.64040711806	;
JU185	7072.83576389	5.3719542324	;
JU186	7099.32929098	5.86731515775	;
JU187	7081.31112076	3.91790779321	;
JU188	7111.13878601	3.56572839506	;
JU189	7127.23325617	5.25137962963	;
JU190	7079.03935185	4.01437962963	;
JU191	7056.33333333	4.40659259259	;
JU192	7022.31004801	3.50585322359	;
JU193	7117.25514403	5.86130864198	;
JU194	7090.60493827	7.29661728395	;
JU195	7140.79355705	1.75057184358	;
JU196	7109.14443301	3.2286394795	;
JU197	7156.80658436	1.74045679012	;
JU198	7089.33333333	8.18888888889	;
JU199	7148.72427984	2.54380246914	;
JU200	7179.61111111	0.692	;
JU201	7152.6129528	1.17747974352	;
JU202	7130.53799373	3.54766643626	;
JU203	7157.35648148	4.74990972222	;
JU204	7138.13473749	4.45815486754	;
JU205	7139.01456404	3.09074151235	;
JU206	7143.75554591	2.68675617284	;
JU207	7098.46129115	2.83836188272	;
JU208	7066.86111111	0.782055555556	;
JU209	7112.38888889	5.38703703704	;
JU210	7108.7037037	4.65102469136	;
JU211	7123.5042524	4.54645679012	;
JU212	7131.83950617	5.62096296296	;
JU213	7124.74074074	8.112	;
JU214	7072.73136717	4.776266861	;
JU215	7175.8546382	2.67896568501	;
JU216	7070.47119342	3.43527366255	;
JU217	7187.45429431	2.58676713249	;
JU218	7118.92838363	3.60581264289	;
JU219	7103.47618741	3.57217185357	;
JU220	7125.2037037	8.273	;
JU221	7125.2037037	8.273	;
JU222	7095.33333333	4.06081481481	;
JU223	7097.83950617	4.33847736626	;
JU224	7115.45061728	5.6573744856	;
JU225	7140.86076818	7.41590397805	;
JU226	7099.67798354	3.73109053498	;
JU227	7114.77842078	2.59063580247	;
JU228	7127.49382716	3.24771399177	;
JU229	7130.3122428	2.46125445816	;
JU230	7128.14709076	6.85413248743	;
JU231	7097.83950617	4.33847736626	;
JU232	7117.84435014	3.35280752743	;
JU233	7085.75634431	3.72087628601	;
JU234	7097.38121597	1.91323685592	;
JU235	7106.18209877	3.75173045267	;
JU236	7130.90513814	2.73026645019	;
JU237	7142.96364883	2.84784878687	;
JU238	7095.2390195	3.30282235404	;
JU239	7150.59790256	4.91643781198	;
JU240	7125.01646091	7.53530864198	;
JU241	7103.53292181	3.96641752401	;
JU242	7134.69380144	5.09779783951	;
JU243	7114.59143519	3.81128472222	;
JU244	7103.47743056	1.78205208333	;
JU245	7084.88773148	1.4613587963	;
JU246	7116.5787037	1.98052777778	;
JU247	7137.9382716	3.51048148148	;
JU248	7117.19367284	3.55181018519	;
JU249	7119.70833333	4.05641666667	;
JU250	7078.68923611	3.52192939815	;
JU251	7081.33802726	4.54550321502	;
JU252	7092.64074074	6.57648148148	;
JU253	7094.49927662	5.49869878472	;
JU254	7091.70709448	5.89516756687	;
JU255	7095.08949492	4.88343765836	;
JU256	7088.50570345	4.81226826132	;
JU257	7089.65267275	5.96162645748	;
JU258	7088.50570345	4.81226826132	;
JU259	7089.65267275	5.96162645748	;
JU260	7104.86178763	4.03608545994	;
JU261	7062.90635895	4.31693414566	;
JU262	7058.36574074	3.6917962963	;
JU263	7083.24783951	2.09987334248	;
JU264	7083.24783951	2.09987334248	;
JU265	7093.59197531	1.00542386831	;
JU266	7061.3276106	3.32550488683	;
JU267	7104.11015947	3.74764197531	;
JU268	7104.11015947	3.74764197531	;
JU269	7098.0059928	3.41903795153	;
JU270	7098.0059928	3.41903795153	;
JU271	7121.94618056	1.45691493056	;
JU272	7062.96625514	3.12621399177	;
JU273	7053.5111454	3.8644122085	;
JU274	7070.18106996	3.33143930041	;
JU275	7079.01993313	4.01413168724	;
JU276	7082.73461077	4.3922295096	;
JU277	7117.45496819	4.78540715213	;
JU278	7138.93124143	3.29981378601	;
JU279	7073.15312071	3.13660013717	;
JU280	7155.70915424	7.01473319616	;
JU281	7139.53218879	4.82232265947	;
JU282	7121.11537905	5.17486682581	;
JU283	7098.28107264	2.18593522805	;
JU284	7057.6197772	3.20613585069	;
JU285	7079.54132668	4.93373924799	;
JU286	7094.5321674	5.14072587484	;
JU287	7100.20032908	4.40731495263	;
JU288	7077.9376694	3.70344011338	;
JU289	7149.73468221	2.08035322359	;
JU290	7095.04300543	2.2672767454	;
JU291	7090.33305936	3.12868535229	;
JU292	7059.84104938	3.8648600823	;
JU293	7108.1288878	5.11375370062	;
JU294	7070.23990126	2.87963275892	;
JU295	7093.648071	4.04636289656	;
JU296	7100.54765831	4.04601145299	;
JU297	7046.62345679	0.68783744856	;
JU298	7040.69135802	1.19772222222	;
JU299	7156.73325617	3.14287962963	;
JU300	7112.58569959	4.46322839506	;
JU301	7060.16712963	5.11422222222	;
JU302	7129.14641204	4.86126388889	;
JU303	7143.45740741	3.02033333333	;
JU304	7076.65039509	1.63902782064	;
JU305	7022.18348765	4.69447800926	;
JU306	7022.80848765	4.69447800926	;
JU307	7035.05648148	4.89540277778	;
JU308	7045.81692387	4.23660050154	;
JU309	7098.02928288	4.88745994799	;
JU310	7094.40380658	2.11045679012	;
JU311	7132.89618056	3.36503472222	;
JU312	7144.49907407	2.49174074074	;
JU313	7033.77366255	4.96576131687	;
JU314	7043.07373114	6.24317009602	;
JU315	7020.47414266	4.19715912209	;
JU316	7034.62620027	2.45552812071	;
JU317	7026.25925926	0.31237037037	;
JU318	7086.37154868	2.22596652092	;
JU319	7113.82098765	3.43607407407	;
JU320	7130.97647811	3.24407738555	;
JU321	7162.37753786	2.23840481932	;
JU322	7142.2751817	2.75618075426	;
JU323	7152.32635978	2.49729278679	;
JU324	7123.34218296	3.34150676271	;
JU325	7039.08868634	3.89990856481	;
JU326	7135.89576509	3.69885427205	;
JU327	7075.87784529	1.17864636381	;
JU328	7118.11021091	4.66237731481	;
JU329	7073.68636403	3.34550162894	;
JU330	7073.10215808	3.08443803048	;
JU331	7135.81532922	4.5223117284	;
JU332	7136.4375	6.38406944444	;
JU333	7096.50520833	5.77641145833	;
JU334	7104.77675111	3.65381815844	;
JU335	7038.0304161	2.8675560128	;
JU336	7057.66849566	3.32009853681	;
JU337	7169.80041152	8.25906910151	;
JU338	7061.82025034	4.26440097737	;
JU339	7041.18604334	4.63047631021	;
JU340	7106.37687757	4.0737037037	;
JU341	7024.50709189	3.67525359968	;
JU342	7079.9451176	4.24740374194	;
JU343	7132.00006668	5.16348045267	;
JU344	7043.29449588	2.19151028807	;
JU345	7054.65440672	0.787018175583	;
JU346	7157.84291838	6.92811945588	;
JU347	7115.82664609	3.00989660494	;
JU348	7081.33802726	4.54550321502	;
JU349	7089.489394	2.44515496399	;
JU350	7111.27314815	2.65815826475	;
JU351	7077.41112263	2.23554311521	;
JU352	7078.77653467	2.40820727297	;
JU353	7111.27314815	2.65815826475	;
JU354	7147.67960391	6.61660625286	;
JU355	7078.77653467	2.40820727297	;
JU356	7089.489394	2.44515496399	;
JU357	7150.05709877	5.41897222222	;
JU358	7143.94419624	2.68891602366	;
JU359	7079.29069502	3.51793241312	;
JU360	7102.91139403	4.55236591221	;
JU361	7132.13773148	5.02354243827	;
JU362	7136.13084419	4.54870144604	;
JU363	7117.7226884	4.07347553369	;
JU364	7086.62860082	2.79991255144	;
JU365	7109.90471579	3.89464287551	;
JU366	7083.97088542	3.3851880787	;
JU367	7114.23947579	3.75940134709	;
JU368	7095.12424769	2.25842588306	;
JU369	7109.05144033	4.63013460219	;
JU370	7109.81790123	4.87698971193	;
JU371	7005.77083333	3.68683333333	;
JU372	7039.08868634	3.89990856481	;
JU373	7069.23611111	3.91569444444	;
JU374	7076.07175926	1.77198148148	;
JU375	7035.95061728	4.20872839506	;
JU376	7109.43081276	5.90650565844	;
JU377	7017.73919753	4.3566882716	;
JU378	7067.74305556	3.03540123457	;
JU379	7100.45081019	3.33288773148	;
JU380	7087.33912037	4.90615046296	;
JU381	7128.96064815	5.47528549383	;
JU382	7125.48994056	5.41299969993	;
JU383	7054.29989712	3.90985871056	;
JU384	7027.29595336	4.93559670782	;
JU385	7062.63621399	4.13206995885	;
JU386	7058.29371285	3.44271742112	;
JU387	7027.29595336	4.93559670782	;
JU388	7119.07255768	3.46951217586	;
JU389	7039.6558642	2.84658333333	;
JU390	7108.51851852	5.48634567901	;
JU391	7117.51943301	5.31722290809	;
JU392	7040.19053498	2.71553909465	;
JU393	7041.98308185	3.9947480567	;
JU394	7054.61848422	3.73928326475	;
JU395	7067.06681527	3.62124394147	;
JU396	7054.58958238	3.95060585277	;
JU397	7075.29260974	3.3259170096	;
JU398	7087.38971765	2.99782693187	;
JU399	7073.25445816	2.9608340192	;
JU400	7071.61097394	2.43560219479	;
JU401	7096.05889918	2.08058641975	;
JU402	7096.07020851	2.41415814567	;
JU403	7121.4848251	0.702905864198	;
JU404	7105.14401466	1.24786294248	;
JU405	7091.17013889	1.06136111111	;
JU406	7089.64222983	1.40801793981	;
JU407	7114.58333333	3.592375	;
JU408	7104.92042824	3.30037384259	;
JU409	7074.15740741	3.46079166667	;
JU410	7084.92580804	3.33549549897	;
JU411	7051.72212577	1.51923881173	;
JU412	7107.18587159	1.72141872428	;
JU413	7078.85368441	2.75877700617	;
JU414	7089.45579883	3.53231784765	;
JU415	7071.86518133	2.41379243827	;
JU416	7084.92592295	2.12046407014	;
JU417	7081.44482864	2.17931352881	;
JU418	7085.93047442	2.66677410998	;
JU419	7105.08851809	1.70931417538	;
JU420	7087.55715931	2.31058007545	;
JU421	7104.07077086	4.93647901901	;
JU422	7088.38764175	4.54290520055	;
JU423	7127.0625	1.759625	;
JU424	7111.83377105	3.3531101728	;
JU425	7091.28877348	3.14361903681	;
JU426	7143.94419624	2.68891602366	;
JU427	7102.91139403	4.55236591221	;
JU428	7132.13773148	5.02354243827	;
JU429	7118.11021091	4.66237731481	;
JU430	7085.98334857	3.14745724737	;
JU431	7041.53847737	4.82647736626	;
JU432	7049.69193752	3.64861049192	;
JU433	7041.98308185	3.9947480567	;
JU434	7054.61848422	3.73928326475	;
JU435	7040.19053498	2.71553909465	;
JU436	7138.65432099	2.26739506173	;
JU437	7091.33333333	0.692	;
JU438	7108.47540509	2.68413136574	;
JU439	7100.90087258	2.67736259717	;
JU440	7102.46864839	3.21835214716	;
JU441	7113.0719302	3.33710732294	;
JU443	7148.86221002	4.5142281587	;
JU444	7116.62615882	3.90396749204	;
JU445	7071.56478052	4.30104903978	;
JU446	7022.31004801	3.50585322359	;
JU447	7027.51851852	0.624740740741	;
JU448	7149.76954733	7.08144855967	;
JU449	7062.89350455	4.02152149063	;
JU450	7075.28610468	3.48133924897	;
JU451	7073.85088735	3.94833603395	;
JU452	7077.63710562	3.98307407407	;
JU453	7128.60878201	2.77418329904	;
JU454	7085.20654721	3.44791382792	;
JU455	7092.92360575	4.41821814986	;
JU456	7068.69633059	0.807546296296	;
JU457	7087.82944316	0.930293852881	;
JU458	7037.22427984	1.39340534979	;
JU459	7030.33868634	3.89990856481	;
JU460	7062.89350455	4.02152149063	;
JU461	7139.5151749	2.81006764403	;
JU462	7121.69465878	5.47278225737	;
JU463	7133.20010288	1.60059150663	;
JU464	7073.43046982	2.7917350823	;
JU465	7067.25282922	2.77020627572	;
JU466	7106.85309446	1.3600893615	;
JU467	7066.08496228	3.054385631	;
JU468	7095.53472222	2.39593055556	;
JU469	7099.8519483	2.24866087963	;
JU470	7080.64595122	2.60028647977	;
JU471	7095.22077546	3.15130536265	;
JU472	7066.44095793	0.43083436214	;
JU473	7071.33950617	0.291530864198	;
JU474	7077.41112263	2.23554311521	;
JU475	7075.20330242	0.550886359739	;
JU476	7123.84652921	2.60106007087	;
JU477	7137.19891779	2.18893278106	;
JU478	7066.44095793	0.43083436214	;
JU479	7088.18657122	1.70996362026	;
JU480	7083.86960591	1.11328427926	;
JU481	7123.84652921	2.60106007087	;
JU482	7103.27785497	3.44399281264	;
JU483	7120.85574203	4.21290219907	;
JU484	7092.16257234	4.11587934028	;
JU485	7114.43448503	4.05441445664	;
JU486	7101.4517223	0.829725280064	;
JU487	7076.78482939	1.91553194659	;
JU488	7064.17390404	2.43270252129	;
JU489	7058.80761317	2.09405375514	;
JU490	7063.90801826	2.8994433299	;
JU491	7075.9580129	6.79647440844	;
JU492	7093.40247476	8.96167527756	;
JU493	7145.85555556	4.217	;
JU494	7108.8712963	4.37970802469	;
JU495	7111.22410837	3.96536831276	;
JU496	7129.8859787	4.25303311233	;
JU497	7118.99759469	2.92453595743	;
JU498	7083.07667864	1.25791961853	;
JU499	7120.52321801	3.528830158	;
JU500	7154.50205761	3.64056767261	;
JU501	7133.03487654	4.27123600823	;
JU502	7115.83410494	3.38452957819	;
JU503	7067.01787837	2.87677732053	;
JU504	7100.49621431	3.59171197033	;
JU505	7095.94941701	2.30305486968	;
JU506	7083.79166667	5.38729166667	;
JU507	7029.46799268	1.13087974394	;
JU508	7110.10157369	3.41326783265	;
JU509	7110.10157369	3.41326783265	;
JU510	7144.72674897	1.63997942387	;
JU511	7144.72674897	1.63997942387	;
JU512	7073.68636403	3.34550162894	;
JU513	7031.53742284	5.65583796296	;
JU514	7048.79653254	4.66577194787	;
JU515	7048.79653254	4.66577194787	;
JU516	7147.11539781	2.93552366255	;
JU517	7115.95540231	2.6477788816	;
JU518	7098.43981481	1.31813271605	;
JU519	7106.63747428	2.25445721879	;
JU520	7080.39125895	4.55595425621	;
JU521	7100.25455729	2.19045992477	;
JU522	7117.83088992	3.8047183642	;
JU523	7079.07741475	3.43736409572	;
JU524	7118.76961163	3.93056751543	;
JU525	7104.92042824	3.30037384259	;
JU526	7123.28717635	3.55069900977	;
JU527	7120.2404246	3.55125459748	;
JU528	7073.13140861	2.03439514746	;
JU529	7066.6404321	1.14505864198	;
JU530	7074.62546479	2.69526318714	;
JU531	7084.09027778	2.21262345679	;
JU532	7073.66738151	4.46103524218	;
JU533	7080.90487349	1.95378627377	;
JU534	7073.00143551	1.56864739798	;
JU535	7074.05377301	3.22157483853	;
JU536	7081.98256387	3.01858974194	;
JU537	7087.05504115	1.60327040466	;
JU538	7068.74801097	1.70830727023	;
JU539	7082.77777778	1.08607407407	;
JU540	7029.94290123	5.03498148148	;
JU541	7038.91666667	6.85522222222	;
JU542	7123.28717635	3.55069900977	;
JU543	7064.51067673	3.56480452675	;
JU544	7073.2417086	1.90320061996	;
JU545	7054.87037037	4.24882407407	;
JU546	7075.67893197	2.62666036523	;
JU547	7088.98726852	1.72937885802	;
JU548	7084.72886124	3.3672582626	;
JU549	7081.70904868	3.44459383038	;
JU550	7090.30222801	1.92986847351	;
JU551	7092.58359589	2.16586973808	;
JU552	7063.89994856	3.91598045267	;
JU553	7057.91793362	4.75463185871	;
JU554	7157.59104938	8.04353703704	;
JU555	7073.5847797	1.99200312135	;
JU556	7087.56781724	4.05059497916	;
JU557	7075.444603	3.69780832455	;
JU558	7135.92058642	5.06018209877	;
JU559	7081.04131202	3.47823894354	;
JU560	7080.95542856	3.00194084362	;
JU561	7065.81539233	2.36771915009	;
JU562	7100.85802469	4.21418106996	;
JU563	7094.50507411	10.3097410301	;
JU564	7098.3125	4.10866666667	;
JU565	7099.58526235	4.16142386831	;
JU566	7068.39814815	3.72858436214	;
JU567	7068.69759329	5.70237481067	;
JU568	7163.40767275	6.29085222337	;
JU569	7068.39814815	3.72858436214	;
JU570	7090.7507716	104.210253772	;
JU571	7103.40864653	43.0677381652	;
JU572	7144.25655168	4.24915361368	;
JU573	7098.67901235	4.14184156379	;
JU574	7100.24279835	4.07953835162	;
JU575	7098.85185185	3.20164609053	;
JU576	7097.77257659	3.21168564243	;
JU577	7100.64814815	3.0627654321	;
JU578	7100.76628944	3.18005486968	;
JU579	7111.2037037	4.8724367284	;
JU580	7110.36779835	4.6257297668	;
JU581	7107.5	5.93503703704	;
JU582	7071.79274691	0.620679012346	;
JU583	7074.77019033	0.735993312757	;
JU584	7079.31074728	1.34238842807	;
JU585	7101.6834631	4.08269793966	;
JU586	7101.97927991	3.88733480294	;
JU587	7105.36526599	2.36771156979	;
JU588	7066.92439075	1.99311434757	;
JU589	7062.59541395	5.54418917181	;
JU590	7101.12641421	4.87471679688	;
JU591	7121.07126066	5.38525961291	;
JU592	7070.81203704	4.99190809328	;
JU593	7104.7909928	4.20702227366	;
JU594	7114.87722908	3.13531481481	;
JU595	7109.04861111	4.50097659465	;
JU596	7164.92022706	4.38345468726	;
JU597	7127.37900091	1.14246762117	;
JU598	7101.4554784	3.71776752186	;
JU599	7074.77358788	2.66963384736	;
JU600	7077.63708848	5.93160733882	;
JU601	7099.93831747	3.25982608882	;
JU602	7099.93831747	3.25982608882	;
JU603	7092.19172751	4.5685828086	;
JU604	7088.83452996	2.46302809258	;
JU605	7086.39968183	2.9301206371	;
JU606	7077.8377915	3.10263283036	;
JU607	7063.76080247	2.94453703704	;
JU608	7066.4526749	3.1964111797	;
JU609	7102.00987654	0.362024691358	;
JU610	7098.11855281	0.604126886145	;
JU611	7107.71481481	0.744814814815	;
JU612	7120.94331276	0.625895061728	;
JU613	7086.39968183	2.9301206371	;
JU614	7077.8377915	3.10263283036	;
JU615	7142.89583333	1.94345833333	;
JU616	7049.65114312	3.64326245999	;
JU617	7065.70923804	3.2010773534	;
JU618	7121.78125	1.8975	;
JU619	7140.82353824	5.10899884259	;
JU620	7105.08851809	1.70931417538	;
JU621	7077.10771605	2.02889266118	;
JU622	7068.86181199	1.80698932613	;
JU623	7081.88078704	1.5211712963	;
JU624	7056.64197531	4.49890123457	;
JU625	7051.72212577	1.51923881173	;
JU626	7123.96764082	2.28727758488	;
JU627	7025.09722222	2.06990740741	;
JU628	7066.6404321	1.14505864198	;
JU629	7079.54132668	4.93373924799	;
JU630	7066.31850137	3.00925548697	;
JU631	7063.78346479	2.52501223137	;
JU632	7093.47989871	3.37945218836	;
JU633	7112.26629213	5.83017278492	;
JU634	7126.43013125	5.37671468746	;
JU635	7112.18254576	4.76813238187	;
JU636	7063.61920066	2.36686153502	;
JU637	7059.78832305	3.9181157979	;
JU638	7117.43436111	5.13267681564	;
JU639	7125.70833333	2.14574074074	;
JU640	7107.20342745	5.21163622399	;
JU641	7061.090121	3.45954247161	;
JU642	7147.421875	2.13998611111	;
JU643	7089.45579883	3.53231784765	;
JU644	7050.34645062	4.79505195473	;
JU645	7028.60365226	3.9131867284	;
JU646	7045.58834877	4.9413587963	;
JU647	7082.65740741	2.01822222222	;
JU648	7077.03858025	1.59901851852	;
JU649	7094.04458162	2.67194855967	;
JU650	7120.72191358	0.828457475995	;
JU651	7049.37071331	4.6168233882	;
JU652	7020.33333333	4.01748148148	;
JU653	7121.718107	1.6584526749	;
JU654	7045.42194787	6.4666563786	;
JU655	7068.91687243	1.05297119342	;
JU656	7112.17201646	0.66637037037	;
JU657	7024.8638546	2.70341060814	;
JU658	7119.68564162	2.75624485067	;
JU659	7146.18720547	2.54642639389	;
JU660	7128.21872118	3.50105688443	;
JU661	7088.96972641	2.13819055784	;
JU662	7095.44283402	2.7654196229	;
JU663	7086.23633973	2.21209019204	;
JU664	7094.19334878	2.55162413737	;
JU665	7025.97168639	3.03586335448	;
JU666	7026.64789095	3.09867798354	;
JU667	7152.91670096	6.32425141461	;
JU668	7156.90481699	7.30607854385	;
JU669	7083.45539259	5.24639400881	;
JU670	7105.2643554	5.5312840176	;
JU671	7109.84899869	5.69108635679	;
JU672	7078.76449321	5.59970202787	;
JU673	7154.08852238	7.09246974666	;
JU674	7120.026887	1.38737937243	;
JU675	7078.31215528	2.1702326246	;
JU676	7075.76312044	2.01704352304	;
JU677	7144.83935185	7.49438151042	;
JU678	7140.1678305	6.95506298225	;
JU679	7130.08645351	6.26729675444	;
JU680	7138.48134645	6.54429378858	;
JU681	7061.10155671	4.67026086677	;
JU682	7135.18	2.81133333333	;
JU683	7117.58017104	5.14595691872	;
JU684	7032.33302838	2.33060567058	;
JU685	7092.99535494	5.04763734568	;
JU686	7176.70396091	2.12200514403	;
JU687	7126.25048583	3.51898671125	;
JU688	7039.15783516	2.5912659334	;
JU689	7094.42635625	3.65484445195	;
JU690	7092.74535494	5.55038734568	;
JU691	7092.74535494	5.55038734568	;
JU692	7059.93195588	3.39944192958	;
JU693	7099.73496799	5.69527563443	;
JU694	7083.88367555	5.70451570359	;
JU695	7134.37311064	3.20054027349	;
JU696	7055.64197531	2.86053703704	;
JU697	7047.02777778	437.468555556	;
JU698	7058.77777778	109.718555556	;
JU699	7064.35764365	3.26696772596	;
JU700	7083.88367555	5.70451570359	;
JU701	7102.91237938	5.26220956397	;
JU702	7051.44187243	1.86715226337	;
JU703	7088.68626597	2.28750637646	;
JU704	7144.25655168	4.24915361368	;
JU705	7055.44378001	1.56431644376	;
JU706	7046.33402992	1.47886089678	;
JU707	7041.50497257	1.64132578875	;
JU708	7060.49687571	2.01813873171	;
JU709	7058.17490903	2.38802189667	;
JU710	7079.03935185	4.01437962963	;
JU711	7055.44378001	1.56431644376	;
JU712	7074.48049769	1.43948032407	;
JU713	7079.21418306	1.57688409851	;
JU714	7161.52762028	6.29973881887	;
JU715	7072.10220336	0.893921639232	;
JU716	7063.86676669	1.01520296068	;
JU717	7053.09248876	1.35907314053	;
JU718	7041.50497257	1.64132578875	;
JU719	7024.38807106	2.89935240662	;
JU720	7076.87571123	1.27106472194	;
JU721	7056.6257716	2.86979012346	;
JU722	7053.09248876	1.35907314053	;
JU723	7093.59197531	1.00542386831	;
JU724	7129.58333333	2.88581481481	;
JU725	7053.09248876	1.35907314053	;
JU726	7027.86362597	0.721625057156	;
JU727	7045.22681756	3.04434293553	;
JU728	7042.89518747	3.41165683585	;
JU729	7039.74613626	4.508391861	;
JU730	7114.24595336	1.79220301783	;
JU731	7037.79096936	3.94412665752	;
JU732	7029.13255601	4.0706428898	;
JU733	7061.54331466	3.76700861149	;
JU734	7068.28717278	3.27304986854	;
JU735	7089.46769119	5.14736329733	;
JU736	7089.46769119	5.14736329733	;
JU737	7050.34722222	1.06136111111	;
JU738	7050.34722222	1.06136111111	;
JU739	7157.94715268	4.95226251715	;
JU740	7084.92592295	2.12046407014	;
JU741	7115.34876543	4.62228463649	;
JU742	7088.9427512	3.77409302126	;
JU743	7140.8010812	5.49360949169	;
JU744	7140.8010812	5.49360949169	;
JU745	7079.52790102	2.21592678326	;
JU746	7080.38518519	6.17638683128	;
JU747	7033.44650206	3.73129218107	;
JU748	7105.78443073	6.54497359396	;
JU749	7124.15819616	0.554272290809	;
JU750	7078.59447874	1.12180178326	;
JU751	7087.8992684	1.15358390489	;
JU752	7161.74774252	4.84562772205	;
JU753	7135.58300729	4.47973472731	;
JU754	7116.47243135	3.29249294562	;
JU755	7110.18053948	6.13390556949	;
JU756	7084.08985125	4.61718186443	;
JU757	7099.45384231	2.20070194259	;
JU758	7063.51842432	3.26329112011	;
JU759	7111.97453939	3.40692720256	;
JU760	7153.6890266	5.64373364626	;
JU761	7095.04300543	2.2672767454	;
JU762	7090.33305936	3.12868535229	;
JU763	7036.76233896	4.43826059349	;
JU764	7119.68564162	2.75624485067	;
JU765	7146.18720547	2.54642639389	;
JU766	7078.85368441	2.75877700617	;
JU767	7085.93047442	2.66677410998	;
JU768	7081.44482864	2.17931352881	;
JU769	7071.86518133	2.41379243827	;
JU770	7089.01998778	2.06013794046	;
JU771	7072.2970679	0.245280864198	;
JU772	7045.04269547	1.42793621399	;
JU773	7062.81712963	2.26694444444	;
JU774	7073.38966049	1.1949382716	;
JU775	7094.09455336	4.74490538472	;
JU776	7026.375	3.10986419753	;
JU777	7078.74074074	5.26087037037	;
JU778	7093.04788306	4.35806172594	;
JU779	7092.26800412	6.73988888889	;
JU780	7083.98805781	5.00090003429	;
JU781	7021.13425926	3.57430658436	;
JU782	7047.08024691	1.17146450617	;
JU783	7016.12962963	1.09709190672	;
JU784	7024.8638546	2.70341060814	;
JU785	7018.5462963	1.85977777778	;
JU786	7026.64789095	3.09867798354	;
JU787	7025.97168639	3.03586335448	;
JU788	7080.90917567	5.05436439043	;
JU789	7074.67209277	1.77279539344	;
JU790	7063.32954363	4.12385477752	;
JU791	7098.34220461	4.65873183915	;
JU792	7064.33423354	3.01984533608	;
JU793	7140.31077032	0.171800925926	;
JU794	7065.99247685	1.49995524691	;
JU795	7039.12403549	2.16746656379	;
JU796	7074.33290734	2.96234780093	;
JU797	7117.79351852	1.46209259259	;
JU798	7072.77825021	4.04318509231	;
JU799	7084.12719224	4.89445525138	;
JU800	7098.69951989	3.50336694102	;
JU801	7073.4713341	4.50864230634	;
JU802	7064.14458999	3.71435170278	;
JU803	7086.99499314	5.30370524691	;
JU804	7151.11111111	4.32654320988	;
JU805	7153.40625	5.49088541667	;
JU806	7062.33506409	1.47037103481	;
JU807	7079.98214971	1.83150111901	;
JU808	7083.57125502	1.94341653172	;
JU809	7075.56609314	1.59822661251	;
JU810	7112.67626623	2.67733349498	;
JU811	7086.21765314	2.0882601166	;
JU812	7045.09833875	3.86218940282	;
JU813	7039.60010992	3.87918851134	;
JU814	7055.56204672	4.65953817539	;
JU815	7052.00505235	4.68514475452	;
JU816	7163.50875986	7.1356983882	;
JU817	7122.4537037	3.12310185185	;
JU818	7098.46693351	5.29397077546	;
JU819	7096.67829979	5.30471938485	;
JU820	7093.01740183	5.05279126811	;
JU821	7108.58743248	5.31984022955	;
JU822	7087.97889686	5.30090167241	;
JU823	7113.18410623	5.59622311305	;
JU824	7051.43938079	3.52727864583	;
JU825	7020.72318673	3.52363695988	;
JU826	7066.8125	1.94345833333	;
JU827	7076.26793981	2.02734837963	;
JU828	7044.9212963	2.6735462963	;
JU829	7053.20164609	2.69645473251	;
JU830	7036.62434092	3.44311860211	;
JU831	7036.84972458	3.22107009817	;
JU832	7028.78645565	3.37235352902	;
JU833	7036.62434092	3.44311860211	;
JU834	7145.26649306	2.12095081019	;
JU835	7056.25493784	3.86661651235	;
JU836	7081.78066058	3.1531389389	;
JU837	7061.81182299	2.45012880563	;
JU838	7084.25072454	4.4249882307	;
JU839	7072.02326413	2.7170913177	;
JU840	7099.33233138	4.49133161992	;
JU841	7095.96193352	4.2321172489	;
JU842	7176.5007716	1.70212654321	;
JU843	7065.70923804	3.2010773534	;
JU844	7091.84682574	2.02175560313	;
JU845	7052.16573832	2.72900891694	;