[TITLE]
Generated synthetic network;

[JUNCTIONS]
;ID	Elev	Demand	Pattern
JU2	7065.15910494	0.890917695473	;
JU3	7123.66666667	0.0	;
JU4	7105.9845679	0.870228395062	;
JU5	7047.93004115	3.60833539095	;
JU6	7072.031893	4.18748353909	;
JU7	7044.27469136	3.7077808642	;
JU8	7052.89814815	4.4290462963	;
JU9	7073.88194444	1.52438580247	;
JU10	7082.61419753	1.26328703704	;
JU11	7013.6997715	4.0028108012	;
JU12	7025.0586184	4.96171977881	;
JU13	7058.80441396	2.81575381039	;
JU14	7014.84168724	3.32300205761	;
JU15	7008.353533	3.47697645176	;
JU16	7024.53555556	2.50957407407	;
JU17	7018.90809099	2.35795313214	;
JU18	7006.90106158	2.99695976223	;
JU19	6999.57606005	3.18149043591	;
JU20	7005.82482066	3.52800161307	;
JU21	7048.56470229	4.19697350823	;
JU22	7048.49885867	3.75615457819	;
JU23	7050.32407407	4.22956790123	;
JU24	7050.92901235	4.65995473251	;
JU25	7028.47311814	3.43707990398	;
JU26	7059.23477366	4.57822633745	;
JU27	7061.37037037	5.55755555556	;
JU28	7062.96831276	5.15198353909	;
JU29	7089.57842507	3.36411025377	;
JU30	7185.56116577	2.59031102109	;
JU31	7016.46656379	5.72222496571	;
JU32	7040.12757202	1.29356995885	;
JU33	7090.56578647	3.94302659179	;
JU34	7063.55006859	2.76413923182	;
JU35	7045.77942387	4.98578326475	;
JU36	7039.83693416	5.24283607682	;
JU37	7112.42017506	3.0798184853	;
JU38	7050.57552083	3.80540625	;
JU39	7120.12760059	5.56350451532	;
JU40	7079.77952421	3.80861504217	;
JU41	7058.375	6.31991666667	;
JU42	7059.9133059	5.25069410151	;
JU44	7073.23871528	3.23407523148	;
JU45	7048.74189815	2.48824537037	;
JU46	7062.0703125	2.89969791667	;
JU47	7085.89670139	1.98649652778	;
JU48	7062.68868313	3.30712757202	;
JU49	7103.18209877	3.45037037037	;
JU50	7074.31481481	2.27130864198	;
JU51	7078.29677641	2.91097942387	;
JU52	7093.2532311	1.8907504501	;
JU53	7080.81568287	5.35665084877	;
JU54	7147.28811407	0.844102001886	;
JU55	7129.66882073	1.26050030007	;
JU56	7096.72309028	4.3786878858	;
JU57	7157.94097222	2.71484722222	;
JU58	7161.34244792	2.02244489455	;
JU59	7147.19444444	2.50011985597	;
JU60	7085.66927083	5.80506365741	;
JU61	7184.16779728	8.03253854274	;
JU62	7085.99862826	5.28804526749	;
JU63	7085.99862826	5.28804526749	;
JU64	7055.42115912	4.95532441701	;
JU65	7050.3478738	4.62319067215	;
JU66	7104.0929784	4.25341358025	;
JU67	7085.9887702	2.74669609482	;
JU68	7057.76330349	1.68330201903	;
JU69	7054.74425788	2.80524882116	;
JU70	7035.13938643	3.89550626175	;
JU71	7060.35168467	4.30039609053	;
JU72	7053.82148766	3.21056644912	;
JU73	7094.25484932	3.54798859739	;
JU74	7025.3127572	1.06538477366	;
JU75	7017.78395062	0.32275308642	;
JU76	7052.87191358	2.89525617284	;
JU77	7087.92332712	3.56964979853	;
JU78	7070.06819862	5.00626819702	;
JU79	7079.12877229	3.40991958162	;
JU80	7120.37146348	4.59766692387	;
JU81	7118.14737654	3.83492746914	;
JU82	7048.97530864	0.954265432099	;
JU83	7050.67386831	1.29545036008	;
JU84	7126.44684499	2.31712345679	;
JU85	7137.89697531	2.54861728395	;
JU86	7136.28703704	3.41914814815	;
JU87	7135.22882373	3.17378978052	;
JU88	7108.99151235	4.72985699588	;
JU89	7146.20717593	4.17872685185	;
JU90	7145.60706361	3.8787186214	;
JU91	7138.92283951	2.89732716049	;
JU92	7129.15394333	2.57689308985	;
JU93	7108.99151235	4.72985699588	;
JU94	7108.29152778	0.913525462963	;
JU95	7083.07638889	2.92847222222	;
JU96	7085.14694444	7.21543981481	;
JU97	7051.55375	4.7319375	;
JU98	7119.12663194	3.00212210648	;
JU99	7081.92844136	2.41169933128	;
JU100	7044.30319444	4.64984027778	;
JU101	7123.13044039	5.62750340078	;
JU102	7080.63434499	0.944341906722	;
JU103	7097.98106481	2.44553009259	;
JU104	7049.77572016	3.35713168724	;
JU105	7058.93381344	3.31535939643	;
JU106	7114.32339892	6.18119968493	;
JU107	7093.97569444	5.00982291667	;
JU108	7148.52231224	2.58633957047	;
JU109	7142.87801698	3.44632561728	;
JU110	7095.27646605	3.08063676698	;
JU111	7117.2193287	7.05846450617	;
JU112	7064.26771476	5.425313143	;
JU113	7120.55272634	2.10356867284	;
JU114	7065.73080633	1.93029861111	;
JU115	7153.18648727	2.37034968707	;
JU116	7057.98148148	6.38362037037	;
JU117	7036.28460905	1.27997805213	;
JU118	7096.27926826	4.42952854938	;
JU119	7080.91857567	5.06329801097	;
JU120	7016.46656379	5.72222496571	;
JU121	7070.3666463	3.18903461505	;
JU122	7121.67204647	0.675815457819	;
JU123	7059.98263889	2.12388683128	;
JU124	7063.7255144	4.67041941015	;
JU125	7088.4845679	5.71624074074	;
JU126	7101.69232253	3.40260648148	;
JU127	7044.19942158	2.13674146472	;
JU128	7117.99672217	4.95072962153	;
JU129	7067.04600906	4.03412323531	;
JU130	7034.97326389	2.63905041152	;
JU131	7032.23361947	2.14244161523	;
JU132	7076.54404684	4.51542401477	;
JU134	7102.21498843	3.23801533565	;
JU135	7068.91782407	2.22665740741	;
JU136	7074.15432099	3.00348148148	;
JU137	7065.98184156	2.95831241427	;
JU138	7069.2037037	4.70451851852	;
JU139	7046.9498171	1.77287014175	;
JU140	7034.17283951	3.44871604938	;
JU141	7041.76650663	3.18165340649	;
JU142	7149.60185185	3.95121673525	;
JU143	7087.83453361	3.50949119799	;
JU144	7064.11985597	3.18011818416	;
JU145	7056.25622106	2.68710011574	;
JU146	7087.52740303	4.77106422405	;
JU147	7066.72916324	3.18676668596	;
JU148	7084.11272248	3.19993927898	;
JU149	7082.2128898	2.68133203661	;
JU150	7186.35442387	8.26996231996	;
JU151	7082.92832647	0.924818758573	;
JU152	7093.57265861	2.46704299554	;
JU153	7134.94444444	1.36955555556	;
JU154	7167.02932099	2.60673559671	;
JU155	7160.72760917	2.71394010059	;
JU156	7015.97898219	3.88968317944	;
JU157	7049.6851508	5.80558296182	;
JU158	7048.33950617	1.59350771605	;
JU159	7060.97890947	1.2060473251	;
JU160	7096.55521155	3.60243233453	;
JU161	7069.02052469	4.66712602881	;
JU162	7071.96003006	5.8105737365	;
JU163	7054.27898663	5.30498375343	;
JU164	7057.91264146	3.77676071674	;
JU165	7088.9031242	4.5381165177	;
JU166	7098.92490328	2.6066951196	;
JU167	7096.39899571	6.39547698849	;
JU168	7076.55857053	3.67862578113	;
JU169	7053.39320559	3.40904140947	;
JU170	7045.25626929	2.62332368827	;
JU171	7117.87400108	3.5541447707	;
JU172	7078.68064933	5.46050354724	;
JU173	7086.56296953	6.04776003354	;
JU174	7025.25222908	3.15872290809	;
JU175	7027.8287037	4.07996090535	;
JU176	7032.14763374	4.12500514403	;
JU177	7034.29272762	3.48542511145	;
JU178	7033.42981967	3.30346662094	;
JU179	7031.9141268	2.16584966564	;
JU180	7201.95833333	2.78349691358	;
JU181	7185.56116577	2.59031102109	;
JU182	7211.97606953	0.911209351423	;
JU183	7199.22044324	1.22278635117	;
JU184	7195.16666667	2.48649305556	;
JU185	7054.27898663	5.30498375343	;
JU186	7071.96003006	5.8105737365	;
JU187	7096.39899571	6.39547698849	;
JU188	7068.9537037	5.58013580247	;
JU189	7151.33955761	1.94677314815	;
JU190	7086.31111111	3.13318518519	;
JU191	7077.66666667	5.49266666667	;
JU192	7023.18069702	2.64753626543	;
JU193	7134.27893519	5.97577623457	;
JU194	7100.15972222	8.14115277778	;
JU195	7144.44664673	0.715222386545	;
JU196	7121.13541667	2.06965123457	;
JU197	7136.96334877	5.01397903807	;
JU198	7093.41666667	8.434	;
JU199	7137.48302469	3.24309979424	;
JU200	7166.91145833	0.958270833333	;
JU201	7155.4649402	0.838519011488	;
JU202	7153.53472222	3.02584567901	;
JU203	7136.32523148	4.84916203704	;
JU204	7126.39941004	4.35718923611	;
JU205	7138.62444273	2.22891062243	;
JU206	7141.3782436	1.515052512	;
JU207	7050.26056134	1.69340297068	;
JU208	7058.09259259	1.01272222222	;
JU209	7112.15277778	5.36841666667	;
JU210	7121.08333333	4.28538888889	;
JU211	7025.45884774	1.643281893	;
JU212	7061.32201646	3.34963400206	;
JU213	7134.62037037	4.56774074074	;
JU214	7123.94290123	7.57203858025	;
JU215	7040.96296296	5.09137037037	;
JU216	7040.96296296	5.09137037037	;
JU217	7116.63573638	3.07337941887	;
JU218	7191.3503917	2.57292753612	;
JU219	7113.56244284	4.42819371571	;
JU220	7090.3346247	4.02839308985	;
JU221	7118.12426055	7.05041429827	;
JU222	7118.12426055	7.05041429827	;
JU223	7103.81481481	3.74844444444	;
JU224	7096.03703704	4.19964609053	;
JU225	7109.15226337	4.59878600823	;
JU226	7125.44444444	5.92781481481	;
JU227	7105.38065844	3.36665843621	;
JU228	7145.60706361	3.8787186214	;
JU229	7134.82107928	6.74040647505	;
JU230	7126.44684499	2.31712345679	;
JU231	7124.50925926	5.52285699588	;
JU232	7096.03703704	4.19964609053	;
JU233	7117.65847908	3.14645361797	;
JU234	7081.62384259	5.54449652778	;
JU235	7096.03769285	2.05644763267	;
JU236	7106.06870499	2.86394187243	;
JU237	7130.72363683	3.47471519204	;
JU238	7146.10138632	2.43074041924	;
JU239	7098.29971574	4.4565592957	;
JU240	7129.15123457	4.22689849108	;
JU241	7121.59684714	6.89718413852	;
JU242	7128.04458162	3.97587620027	;
JU243	7136.680018	4.11640723594	;
JU244	7116.52777778	0.508166666667	;
JU245	7060.47395833	1.8286875	;
JU246	7055.92939815	2.345375	;
JU247	7034.31076389	1.69889583333	;
JU248	7036.0	1.67583333333	;
JU249	7120.67563657	2.58323726852	;
JU250	7141.0465535	1.12147839506	;
JU251	7051.48611111	3.61217824074	;
JU252	7079.10942323	4.51694605195	;
JU253	7144.61623907	6.69044508745	;
JU254	7057.63194444	5.787375	;
JU255	7078.29013149	5.19736902006	;
JU256	7065.76023592	5.20067355083	;
JU257	7080.78973765	5.30589660494	;
JU258	7077.87114198	5.77377469136	;
JU259	7080.78973765	5.30589660494	;
JU260	7039.94984568	2.66113271605	;
JU261	7091.68117344	3.77362359678	;
JU262	7090.57161396	5.17835592421	;
JU263	7066.87037037	4.69007407407	;
JU264	7121.75389089	2.35638240169	;
JU265	7121.75389089	2.35638240169	;
JU266	7049.94870756	0.916633873457	;
JU267	7068.90740741	4.42397222222	;
JU268	7133.98851166	3.55261111111	;
JU269	7133.98851166	3.55261111111	;
JU270	7116.59111083	3.33746333448	;
JU271	7116.59111083	3.33746333448	;
JU272	7069.68055556	0.468555555556	;
JU273	7058.75544343	2.76583600984	;
JU274	7073.43518519	5.09859259259	;
JU275	7083.54897119	3.05308641975	;
JU276	7063.91788837	3.28095884774	;
JU277	7024.20285172	2.07874852109	;
JU278	7099.37152853	4.70638477065	;
JU279	7139.11610243	2.25474544539	;
JU280	7095.18374486	3.19210150892	;
JU281	7132.85882523	5.98111824846	;
JU282	7129.6081332	4.06326157407	;
JU283	7133.91647377	5.51420473251	;
JU284	7100.14136472	3.77057006959	;
JU285	7110.73787736	4.79485455247	;
JU286	7081.01787256	3.8624940573	;
JU287	7095.6011677	4.8117459196	;
JU288	7092.54854435	4.08085819097	;
JU289	7106.42066556	4.53856300921	;
JU290	7142.30234053	3.81597942387	;
JU291	7090.24244926	2.83586532279	;
JU292	7089.01066216	3.16731348618	;
JU293	7125.40838144	5.64085241389	;
JU294	7116.45866287	3.95359030993	;
JU295	7116.38828875	4.27287482853	;
JU296	7044.97170782	2.34874331276	;
JU297	7062.61574074	2.2195473251	;
JU298	7059.48611111	0.950277777778	;
JU299	7100.71990741	2.96337268519	;
JU300	7134.57337963	4.15916435185	;
JU301	7060.075	6.3255	;
JU302	7053.41587095	3.24625318287	;
JU303	7039.83693416	5.24283607682	;
JU304	7125.87241941	4.74280889918	;
JU305	7075.3149327	4.1404378858	;
JU306	7016.46656379	5.72222496571	;
JU307	7016.46656379	5.72222496571	;
JU308	7058.375	6.31991666667	;
JU309	7057.98148148	6.38362037037	;
JU310	7102.49872352	4.83570842383	;
JU311	7107.73701132	3.29947436557	;
JU312	7126.23177083	3.49996875	;
JU313	7127.65319573	3.76913194444	;
JU314	7032.19738012	5.64305797039	;
JU315	7042.63078704	6.1974531893	;
JU316	7026.998572	4.28373957262	;
JU317	7039.63901749	3.36956841564	;
JU318	7025.25925926	4.34580246914	;
JU319	7081.18305169	3.48905250605	;
JU320	7131.7033947	2.57722035751	;
JU321	7129.56584243	2.82600165752	;
JU322	7124.59661061	3.36885572718	;
JU323	7119.67352875	3.40695534616	;
JU324	7120.66585695	3.07039453784	;
JU325	7047.04253472	2.52888541667	;
JU326	7139.519525	3.20398184585	;
JU327	7076.27460339	1.84556976595	;
JU328	7114.32957176	2.9315775463	;
JU329	7082.33573388	4.5754585048	;
JU330	7107.18277392	3.34231751543	;
JU331	7140.51170267	4.85795421811	;
JU332	7129.19534465	4.79724125514	;
JU333	7129.47646605	3.71504488169	;
JU334	7091.57377615	5.75591920653	;
JU335	7034.10007545	3.23580521262	;
JU336	7010.41119225	3.45453979781	;
JU337	7135.05555556	0.759259259259	;
JU338	7049.81963496	5.20865855053	;
JU339	7033.10960315	4.74762159949	;
JU340	7087.94506173	4.36689494742	;
JU341	7120.55272634	2.10356867284	;
JU342	7087.83453361	3.50949119799	;
JU343	7142.04207819	5.1985	;
JU344	7036.25925926	4.69007407407	;
JU345	7046.53703704	4.30111522634	;
JU346	7131.81522634	6.01995839049	;
JU347	7087.02285279	3.93864789095	;
JU348	7072.05546811	1.8823117284	;
JU349	7087.5597603	2.96047907736	;
JU350	7093.64696624	3.29227483068	;
JU351	7075.82150518	2.40341287116	;
JU352	7076.02151765	2.75322087013	;
JU353	7093.64696624	3.29227483068	;
JU354	7087.02285279	3.93864789095	;
JU355	7076.02151765	2.75322087013	;
JU356	7099.34999975	2.79186974701	;
JU357	7143.02777778	4.78272222222	;
JU358	7149.51320988	2.90547196502	;
JU359	7085.25504401	4.46870274634	;
JU360	7104.97932742	5.60120660794	;
JU361	7152.45666152	5.92306468621	;
JU362	7134.10534494	4.05323622542	;
JU363	7124.95073785	4.68540765657	;
JU364	7097.58024691	3.23685802469	;
JU365	7109.64699588	4.26547196502	;
JU366	7092.9087037	3.89157060185	;
JU367	7119.6846965	4.1848988876	;
JU368	7106.21973122	2.98935929641	;
JU369	7125.3288323	4.25885313786	;
JU370	7112.48013117	4.81471026235	;
JU371	7054.06814236	2.793640625	;
JU372	7044.11501736	2.31183854167	;
JU373	7045.265625	3.49538194444	;
JU374	7048.51967593	2.55572993827	;
JU375	7023.09876543	3.28282716049	;
JU376	7015.29951132	1.56191923868	;
JU377	6994.32053755	3.32727649177	;
JU378	7052.15972222	2.20025	;
JU379	7023.69444444	1.95877777778	;
JU380	7021.69444444	1.95877777778	;
JU381	7129.7037037	5.43511111111	;
JU382	7128.5149177	4.90533859168	;
JU383	7024.54107629	5.25721016709	;
JU384	7077.51637517	5.44792078189	;
JU385	7056.85364274	2.18636412132	;
JU386	7024.54107629	5.25721016709	;
JU387	7132.7910317	1.39243681056	;
JU388	7056.85364274	2.18636412132	;
JU389	7125.41338735	3.1484061214	;
JU390	7109.2345679	3.78472427984	;
JU391	7047.24573206	2.11690653935	;
JU392	7040.9391318	3.0215400663	;
JU393	7041.37247085	2.39057904664	;
JU394	7062.34739369	3.16150251486	;
JU395	7048.35101071	3.12156532922	;
JU396	7063.90356653	2.89800548697	;
JU397	7072.6109968	2.47718152721	;
JU398	7067.09553233	2.8565056504	;
JU399	7055.83973926	2.51015216692	;
JU400	7119.28665123	2.18447839506	;
JU401	7111.76708248	2.73746008552	;
JU402	7095.05902778	3.18930092593	;
JU403	7092.84553969	3.28441613083	;
JU404	7069.59027778	3.60761111111	;
JU405	7075.47802533	3.47593004115	;
JU406	7160.76041667	3.89580208333	;
JU407	7148.9689429	3.70198447145	;
JU408	7141.41396605	3.61158834877	;
JU409	7134.29065929	3.47895812972	;
JU410	7064.30873843	2.74825607639	;
JU411	7083.68334512	1.25570115312	;
JU412	7106.54231824	3.02585390947	;
JU413	7065.01845422	2.4518808299	;
JU414	7101.53269033	3.04892515432	;
JU415	7111.41893122	2.70679204443	;
JU416	7093.30541731	3.05430613426	;
JU417	7108.71103799	2.88653398545	;
JU418	7077.16931441	1.31342336641	;
JU419	7070.31487804	1.66077779921	;
JU420	7108.59895913	5.06104247796	;
JU421	7099.91600091	4.59555993328	;
JU422	7127.12037037	1.58859876543	;
JU423	7095.42353074	2.15968852881	;
JU424	7114.87683256	1.94705697016	;
JU425	7149.51320988	2.90547196502	;
JU426	7104.97932742	5.60120660794	;
JU427	7152.45666152	5.92306468621	;
JU428	7142.75424383	5.94143582819	;
JU429	7169.24305556	6.77818209877	;
JU430	7046.57887571	4.93684641847	;
JU431	7198.51388889	4.56412962963	;
JU432	7040.9391318	3.0215400663	;
JU433	7041.37247085	2.39057904664	;
JU434	7047.24573206	2.11690653935	;
JU435	7120.73533951	1.32695987654	;
JU436	7095.17197949	1.61128639403	;
JU437	7133.14351852	1.01774382716	;
JU438	7115.91460905	3.12498291752	;
JU439	7155.80606996	6.1943436214	;
JU440	7132.83899177	6.3205521262	;
JU441	7059.58539095	6.69843415638	;
JU442	7187.44907407	4.92954578189	;
JU443	7164.61431184	6.14121422039	;
JU444	7100.66820988	2.39863888889	;
JU445	7158.35493827	6.54051851852	;
JU446	7028.85185185	2.75355555556	;
JU447	7132.11759018	4.14952842614	;
JU448	7091.54827461	4.60256045668	;
JU449	7062.19540895	3.18330735597	;
JU450	7085.5793668	5.01433711098	;
JU451	7123.84046854	5.1101347308	;
JU452	7065.8315279	3.12961546077	;
JU453	7078.74965706	3.54972153635	;
JU454	7084.07417454	3.7468429909	;
JU455	7079.38631687	1.22345061728	;
JU456	7075.20032536	0.917353652263	;
JU457	7036.28460905	1.27997805213	;
JU458	7059.94983513	2.96162804288	;
JU459	7042.25154321	0.781114197531	;
JU460	7109.2345679	3.78472427984	;
JU461	7092.33047197	4.79275090021	;
JU462	7138.22110768	1.23007838935	;
JU463	7067.5628215	3.19731421468	;
JU464	7069.38691701	3.43564291838	;
JU465	7100.19444444	2.62468209877	;
JU466	7085.80434099	3.40224281264	;
JU467	7081.56278935	2.59387037037	;
JU468	7103.24710648	3.37213850309	;
JU469	7157.66666667	7.18451851852	;
JU470	7084.8503649	2.7632341821	;
JU471	7039.2037037	0.113527777778	;
JU472	7049.74074074	0.227055555556	;
JU473	7075.82150518	2.40341287116	;
JU474	7054.71492327	0.419312328532	;
JU475	7122.01890432	2.55113097279	;
JU476	7143.27726337	3.54765180613	;
JU477	7039.2037037	0.113527777778	;
JU478	7093.59192101	2.03799071216	;
JU479	7093.59192101	2.03799071216	;
JU480	7122.01890432	2.55113097279	;
JU481	7126.31054527	4.72292373971	;
JU482	7089.00330504	4.88288168724	;
JU483	7129.33824922	4.32569959443	;
JU484	7093.13580247	1.0430787037	;
JU485	7068.33410494	3.05480015432	;
JU486	7055.2498714	4.18617283951	;
JU487	7060.13477366	2.88473868313	;
JU488	7055.62819001	4.14382240941	;
JU489	7073.4047368	6.00919823817	;
JU490	7095.11564259	6.75815015664	;
JU491	7154.27777778	4.68555555556	;
JU492	7183.20717593	6.22698148148	;
JU493	7136.83940329	5.53963374486	;
JU494	7154.08916324	3.86759396433	;
JU495	7123.63093697	3.02085921574	;
JU496	7074.88040123	1.85731147119	;
JU497	7147.12400295	4.64573311995	;
JU498	7143.75297211	3.6502895519	;
JU499	7128.7336677	5.30875411523	;
JU500	7150.94308985	4.69988340192	;
JU501	7057.81991866	2.68908902392	;
JU502	7112.91806279	3.43928974971	;
JU503	7028.71604938	5.24439506173	;
JU504	7031.25004287	3.48964214678	;
JU505	7091.34502648	2.45419282503	;
JU506	7091.34502648	2.45419282503	;
JU507	7127.53070345	0.93221566358	;
JU508	7127.53070345	0.93221566358	;
JU509	7082.33573388	4.5754585048	;
JU510	7029.38374486	5.09909327846	;
JU511	7043.24223156	4.12030770843	;
JU512	7043.24223156	4.12030770843	;
JU513	7139.21416324	4.05107861797	;
JU514	7117.69213767	3.17880495274	;
JU515	7102.33584507	1.69820724023	;
JU516	7107.76046087	2.16973536094	;
JU517	7068.80392375	3.47213970812	;
JU518	7058.3650897	2.25789380787	;
JU519	7120.78674769	1.32365393519	;
JU520	7118.65726273	0.915910300926	;
JU521	7136.85330456	1.56719154378	;
JU522	7148.9689429	3.70198447145	;
JU523	7126.85949556	2.05387888303	;
JU524	7123.76756607	2.31855807577	;
JU525	7062.33140432	2.6834948774	;
JU526	7090.36664095	3.94845820473	;
JU527	7069.55139746	2.45432009459	;
JU528	7114.82561728	0.435114197531	;
JU529	7084.70392518	3.58901710867	;
JU530	7078.77231224	1.85033207948	;
JU531	7071.25533336	1.60182969679	;
JU532	7058.33020405	3.10527998781	;
JU533	7098.41062243	1.1854932556	;
JU534	7076.70037104	1.76884389765	;
JU535	7082.9520769	1.44703296468	;
JU536	7108.17231867	0.701770833333	;
JU537	7030.01954733	4.67226748971	;
JU538	7034.27160494	6.55165432099	;
JU539	7071.52296061	2.81062060614	;
JU540	7049.42352538	2.17112894376	;
JU541	7059.64113378	2.82588901883	;
JU542	7116.26697531	6.94038323045	;
JU543	7057.01011124	3.02618572102	;
JU544	7049.77572016	3.35713168724	;
JU545	7050.86496914	2.16452777778	;
JU546	7056.32272377	3.14852340535	;
JU547	7053.90441744	3.38035082305	;
JU548	7053.91861175	2.3870935571	;
JU549	7051.68138074	2.08167476852	;
JU550	7057.59992284	3.09956507202	;
JU551	7068.10157143	5.4492536937	;
JU552	7165.02469136	7.25300555127	;
JU553	7134.31740741	3.01958024691	;
JU554	7064.71705676	3.7618923754	;
JU555	7076.4965635	3.92228785627	;
JU556	7068.68702132	4.44399584667	;
JU557	7085.53113331	4.17818927342	;
JU558	7126.66987654	5.67708101852	;
JU559	7071.6087695	4.46806033522	;
JU560	7094.85039438	3.38000703018	;
JU561	7096.63102638	4.68095284994	;
JU562	7088.27777778	2.20938888889	;
JU563	7091.56408608	2.79469795953	;
JU564	7064.75896991	4.64653935185	;
JU565	7067.29499957	4.08318785365	;
JU566	7157.80642468	6.211666881	;
JU567	7064.75896991	4.64653935185	;
JU568	7084.60096906	5.4355944707	;
JU569	7101.54641284	5.71658055502	;
JU570	7119.25647291	6.40949194102	;
JU571	7110.12139918	4.17933333333	;
JU572	7110.67478281	4.33914940558	;
JU573	7093.31481481	4.6935308642	;
JU574	7099.85299497	4.64479903978	;
JU575	7105.18634259	3.12920601852	;
JU576	7107.78586355	3.36239550111	;
JU577	7142.09567901	4.23016666667	;
JU578	7137.17236797	4.21582107339	;
JU579	7107.74074074	5.62266666667	;
JU580	7072.26658093	0.771021262003	;
JU581	7105.4191358	5.92736419753	;
JU582	7070.01094536	1.07354481024	;
JU583	7066.40210524	1.57437913428	;
JU584	7080.29767574	4.12335331312	;
JU585	7077.09310157	4.36866270739	;
JU586	7100.9744348	2.85127376972	;
JU587	7068.1132491	2.93381159979	;
JU588	7049.11393497	4.66758336548	;
JU589	7098.08832626	5.42541689172	;
JU590	7127.60034079	5.69979992927	;
JU591	7069.5332969	5.66356695816	;
JU592	7090.26770673	5.69942830504	;
JU593	7119.51298354	2.65932784636	;
JU594	7135.54320988	2.3093744856	;
JU595	7130.59166381	6.4107872085	;
JU596	7129.37812178	1.60435609568	;
JU597	7134.61943587	4.00677409122	;
JU598	7071.97647285	2.89719623706	;
JU599	7088.32114483	5.52782838935	;
JU600	7104.67142661	3.65448653978	;
JU601	7104.67142661	3.65448653978	;
JU602	7083.31031357	4.34321898672	;
JU603	7081.99076371	3.66888982392	;
JU604	7076.84079409	2.55013046792	;
JU605	7086.74026063	3.05154046639	;
JU606	7092.00987654	2.43320987654	;
JU607	7088.44698217	2.81621673525	;
JU608	7104.38333333	0.234277777778	;
JU609	7100.85417953	0.430986796982	;
JU610	7101.23333333	0.335166666667	;
JU611	7115.51392747	0.430519032922	;
JU612	7076.84079409	2.55013046792	;
JU613	7057.81991866	2.68908902392	;
JU614	7044.62345679	4.05980401235	;
JU615	7044.58126929	2.80292433985	;
JU616	7072.02718107	3.8205317644	;
JU617	7129.91345165	2.10712915809	;
JU618	7140.75913066	4.61758457647	;
JU619	7077.16931441	1.31342336641	;
JU620	7043.26635802	1.66567592593	;
JU621	7050.39733796	2.3894369213	;
JU622	7090.7337963	3.09010416667	;
JU623	7083.76851852	2.46065277778	;
JU624	7056.48719618	2.80033072917	;
JU625	7060.42881944	3.29472395833	;
JU626	7062.33140432	2.6834948774	;
JU627	7090.36664095	3.94845820473	;
JU628	7081.01787256	3.8624940573	;
JU629	7047.03322188	2.73503986626	;
JU630	7045.18494227	2.50940166324	;
JU631	7092.38435571	2.26425347222	;
JU632	7115.39411732	3.44258392811	;
JU633	7084.75411523	2.9989691358	;
JU634	7077.24634559	3.66735558128	;
JU635	7109.07421607	3.47833270105	;
JU636	7105.94895351	3.3384870006	;
JU637	7118.27561617	4.50066228511	;
JU638	7135.73341049	3.55603652263	;
JU639	7107.75810661	5.19070696397	;
JU640	7069.20431575	4.90433227119	;
JU641	7095.84133873	6.16162641461	;
JU642	7065.01845422	2.4518808299	;
JU643	7058.42845508	5.3593335048	;
JU644	7093.61911651	6.16162641461	;
JU645	7051.59895833	5.2318125	;
JU646	7099.25	0.692	;
JU647	7110.99382716	2.86497344393	;
JU648	7140.75925926	3.58503703704	;
JU649	7117.53039284	0.756749164095	;
JU650	7035.6432968	5.11346102442	;
JU651	7045.81815201	3.83308371914	;
JU652	7130.55227623	1.30486625514	;
JU653	7050.03600301	5.55103640028	;
JU654	7079.43310185	0.818166666667	;
JU655	7116.80480967	0.677643004115	;
JU656	7030.85528121	4.19063683128	;
JU657	7151.46256954	4.56201174078	;
JU658	7109.67358539	2.34453159294	;
JU659	7125.54586763	3.89927194073	;
JU660	7119.67534213	3.37982826253	;
JU661	7136.27726337	3.6573744856	;
JU662	7106.71141975	1.49414197531	;
JU663	7119.63443073	2.75883312614	;
JU664	7028.33974551	3.45069817387	;
JU665	7030.90483539	4.17659053498	;
JU666	7132.4293459	5.59492876586	;
JU667	7146.32386108	6.56919519997	;
JU668	7067.90379386	4.96362939922	;
JU669	7068.10166007	4.75984888153	;
JU670	7057.09379878	4.56800179416	;
JU671	7070.7840762	5.54118811889	;
JU672	7186.88020833	7.82227469136	;
JU673	7126.89676183	1.05341438043	;
JU674	7073.28798011	3.24962585734	;
JU675	7080.37207767	3.29413735997	;
JU676	7155.2681713	7.39764621914	;
JU677	7139.9792374	6.04856159979	;
JU678	7140.83303755	6.24487662894	;
JU679	7160.44324846	7.19644933128	;
JU680	7058.97793981	4.81210628858	;
JU681	7110.97333333	1.40566666667	;
JU682	7126.11028807	5.75177494856	;
JU683	7030.937105	2.27249463092	;
JU684	7067.26766118	2.79902331962	;
JU685	7182.05915638	1.82693861454	;
JU686	7129.97113626	2.3709507316	;
JU687	7039.65586113	2.61242510788	;
JU688	7081.37510181	4.03673733282	;
JU689	7099.55139918	5.4087037037	;
JU690	7099.55139918	5.4087037037	;
JU691	7071.65493827	4.46532510288	;
JU692	7061.32201646	3.34963400206	;
JU693	7055.00514225	3.8589865505	;
JU694	7139.58397527	2.62110813186	;
JU695	7041.64506173	2.69991358025	;
JU696	6991.34574588	5.59880504115	;
JU697	7052.87191358	2.89525617284	;
JU698	7050.28943759	3.00763648834	;
JU699	7055.00514225	3.8589865505	;
JU700	7082.28649584	3.61749108903	;
JU701	7074.64763374	2.17696502058	;
JU702	7077.00024598	2.00769345136	;
JU703	7119.25647291	6.40949194102	;
JU704	7045.00114255	1.01464917695	;
JU705	7038.65969498	1.03521593507	;
JU706	7052.00622085	1.81437197074	;
JU707	7077.38780707	2.30001425088	;
JU708	7054.61895576	3.75605486968	;
JU709	7038.65969498	1.03521593507	;
JU710	7045.00114255	1.01464917695	;
JU711	7061.15771605	2.37099382716	;
JU712	7063.45102881	2.00686213992	;
JU713	7150.75270157	6.17500140985	;
JU714	7068.77566491	1.05300876391	;
JU715	7066.52671722	0.680039424884	;
JU716	7061.20084294	0.37073864079	;
JU717	7052.00622085	1.81437197074	;
JU718	7066.20959965	1.5447500127	;
JU719	7044.11501736	2.31183854167	;
JU720	7061.20084294	0.37073864079	;
JU721	7049.94870756	0.916633873457	;
JU722	7133.24537037	3.98020216049	;
JU723	7061.20084294	0.37073864079	;
JU724	7017.79258904	2.54514597622	;
JU725	7028.64164666	4.40535396662	;
JU726	7050.29602593	2.83937767048	;
JU727	7041.35674493	2.42078240384	;
JU728	7042.94956008	4.83462267447	;
JU729	7087.35228722	2.08911406357	;
JU730	7044.79236637	3.94681221132	;
JU731	7038.41003391	4.14579973034	;
JU732	7049.01418134	2.8234126467	;
JU733	7073.03582533	3.4721390032	;
JU734	7112.1611797	5.06095610425	;
JU735	7112.1611797	5.06095610425	;
JU736	7038.88786008	1.50191769547	;
JU737	7038.88786008	1.50191769547	;
JU738	7149.18909465	5.9878861454	;
JU739	7149.18909465	5.9878861454	;
JU740	7114.05560914	4.10029295267	;
JU741	7092.30384088	4.94161791267	;
JU742	7107.07105624	4.78931412894	;
JU743	7107.07105624	4.78931412894	;
JU744	7100.21628729	2.9649837963	;
JU745	7082.27115269	6.01706691529	;
JU746	7053.58303902	3.54886391622	;
JU747	7115.63360554	6.08897360825	;
JU748	7129.76600116	0.475595036008	;
JU749	7085.66811503	0.878588273748	;
JU750	7102.64306842	0.942148934042	;
JU751	7148.57094479	4.1698335048	;
JU752	7109.77995506	4.9240883702	;
JU753	7134.29559502	1.95084246846	;
JU754	7093.29692751	3.91204772698	;
JU755	7083.41940211	5.49716638803	;
JU756	7099.41492734	3.11986123971	;
JU757	7061.85268176	4.10143599966	;
JU758	7095.66509539	4.11097933546	;
JU759	7149.76066196	5.36254903978	;
JU760	7090.24244926	2.83586532279	;
JU761	7089.01066216	3.16731348618	;
JU762	7125.54586763	3.89927194073	;
JU763	7151.46256954	4.56201174078	;
JU764	7109.67358539	2.34453159294	;
JU765	7106.54231824	3.02585390947	;
JU766	7108.71103799	2.88653398545	;
JU767	7093.30541731	3.05430613426	;
JU768	7056.48719618	2.80033072917	;
JU769	7098.92490328	2.6066951196	;
JU770	7074.51851852	0.925450617284	;
JU771	7048.93209877	1.74241358025	;
JU772	7108.128495	3.41032510824	;
JU773	7083.44444444	2.44833333333	;
JU774	7083.56532922	4.55605555556	;
JU775	7030.6558642	1.5123117284	;
JU776	7130.86419753	6.38869753086	;
JU777	7083.57874776	4.30861627102	;
JU778	7128.39609053	7.23439917695	;
JU779	7129.53761467	5.96177342678	;
JU780	7019.83024691	2.36191358025	;
JU781	7084.25308642	1.18888117284	;
JU782	7047.20852623	2.67171604938	;
JU783	7030.85528121	4.19063683128	;
JU784	7020.44444444	4.46662962963	;
JU785	7030.90483539	4.17659053498	;
JU786	7028.33974551	3.45069817387	;
JU787	7052.79043692	3.41745090664	;
JU788	7132.57629801	3.14973754001	;
JU789	7099.43611721	3.69398870905	;
JU790	7065.58647803	4.41151882395	;
JU791	7047.03629401	3.61953577961	;
JU792	7068.91782407	2.22665740741	;
JU793	7059.21498843	3.04744675926	;
JU794	7127.35061728	4.5098600823	;
JU795	7127.68922182	1.65419084362	;
JU796	7072.14182099	4.79223285322	;
JU797	7076.79560304	4.65651791034	;
JU798	7079.57812831	4.88223067572	;
JU799	7066.12694589	5.30259678105	;
JU800	7129.20740741	5.34115912209	;
JU801	7108.15020576	4.71620164609	;
JU802	7162.6298011	3.57528920896	;
JU803	7034.13552812	1.62577625362	;
JU804	7081.74565972	2.69188562743	;
JU805	7059.6914108	2.32481775701	;
JU806	7055.27619885	1.84562634555	;
JU807	7083.77438593	2.94266377136	;
JU808	7078.90893695	3.49661626095	;
JU809	7146.42033072	3.93833721279	;
JU810	7098.92259473	6.08704777848	;
JU811	7098.18185399	6.08704777848	;
JU812	7068.40355861	5.42303024858	;
JU813	7065.13980383	5.34615802362	;
JU814	7134.82107928	6.74040647505	;
JU815	7057.09379878	4.56800179416	;
JU816	7077.17601702	4.99906110682	;
JU817	7078.61743387	5.01518455067	;
JU818	7080.19620291	4.99602709626	;
JU819	7094.23054109	5.04143682485	;
JU820	7074.37537671	5.12900729126	;
JU821	7090.91379319	5.11203945455	;
JU822	7045.72048611	2.61848958333	;
JU824	7061.8125	1.85966666667	;
JU825	7071.6953125	1.95211921296	;
JU826	7135.59927984	0.667636831276	;
JU827	7058.33767361	2.57824344136	;
JU828	7037.73784722	2.98701298868	;
JU829	7041.25665509	2.97890003429	;
JU830	7034.47554977	3.17517185357	;
JU831	7037.73784722	2.98701298868	;
JU832	7044.62345679	4.05980401235	;
JU833	7059.1448291	4.2429606803	;
JU834	7111.08962287	3.17933457231	;
JU835	7099.77352885	2.70966141189	;
JU836	7087.60958001	4.63329568643	;
JU837	7081.01290965	3.21343524413	;
JU838	7079.15828566	4.44686627005	;
JU839	7089.21734409	4.2227171213	;
JU840	7181.37037037	1.63904320988	;
JU841	7081.11936123	3.3381518609	;
JU842	7097.62928355	1.71843833591	;
JU843	7056.1419575	2.49380933658	;
JU844	7033.9972059	2.32983097089	;
JU845	7018.43908489	2.91335406188	;