[TITLE]
Generated synthetic network;

[JUNCTIONS]
;ID	Elev	Demand	Pattern
JU1	7084.83939901	4.64811741255	;
JU2	7125.20126029	4.16492746914	;
JU3	7091.59289063	5.67935416667	;
JU4	7072.53125	2.15657638889	;
JU5	7094.11149691	2.06810763889	;
JU6	7108.12324781	0.104611979167	;
JU7	7089.01176698	0.89716087963	;
JU8	7060.15679253	4.02421549479	;
JU10	7017.24549897	3.82356738683	;
JU11	7107.59461806	0.685557291667	;
JU12	7100.30376399	2.06129224537	;
JU13	7068.41186343	4.93898691487	;
JU15	7070.67676685	6.24516304977	;
JU16	7108.38368056	4.63951414609	;
JU17	7048.3353723	3.17180840621	;
JU18	7099.90625	6.47741203704	;
JU19	7138.55685764	5.43709895833	;
JU20	7066.01139189	2.94912650034	;
JU21	7143.53224666	2.07648996914	;
JU22	7086.09393486	5.11315813882	;
JU23	7111.68605324	2.85533246528	;
JU24	7042.65383873	1.20012439986	;
JU25	7111.26066339	6.38468687759	;
JU26	7076.63102281	3.66239806241	;
JU27	7075.875	1.05425	;
JU28	7067.33615162	3.71045891204	;
JU29	7122.1875	6.87565364583	;
JU30	7107.9974024	4.3706469385	;
JU31	7167.24093364	3.47796013374	;
JU32	7164.37539295	3.77294533036	;
JU33	7073.20195956	2.45623426649	;
JU34	7115.14437586	4.28674537037	;
JU35	7114.87927241	3.65582275234	;
JU36	7126.93602734	5.30516649877	;
JU37	7120.03076931	4.80029580422	;
JU38	7088.55557083	3.3368438143	;
JU39	7093.59015346	2.00286925583	;
JU40	7074.67717828	5.91310047743	;
JU41	7058.96643519	5.13218209877	;
JU42	7081.7394539	3.6208835372	;
JU43	7066.85174674	3.41522049214	;
JU44	7102.53038194	5.11180092593	;
JU45	7086.6881857	4.24783703864	;
JU46	7061.27604167	0.854166666667	;
JU47	7143.53819444	6.30597685185	;
JU48	7100.66572627	5.14911072531	;
JU49	7087.61007125	2.43686224441	;
JU50	7106.29616127	1.88112943673	;
JU51	7052.19042969	3.02200260417	;
JU52	7076.74447463	3.49268543604	;
JU53	7086.29001093	3.00023721226	;
JU54	7073.83655059	3.54898606507	;
JU55	7072.22222222	3.35166666667	;
JU56	7151.22685185	4.44337962963	;
JU57	7071.45679012	3.5469537037	;
JU58	7059.38117284	3.95078935185	;
JU59	7088.42308063	2.60167062114	;
JU60	7049.99040123	3.24398840449	;
JU61	7092.20445059	2.56151205633	;
JU62	7109.57218793	3.48704072359	;
JU63	7112.42052454	4.75196553141	;
JU64	7093.2419249	4.96027407448	;
JU65	7134.08066165	4.77562543403	;
JU66	7050.33333333	2.68133333333	;
JU67	7076.71006944	5.7461400463	;
JU68	7059.61111111	2.45788888889	;
JU69	7103.38901749	4.73420216049	;
JU70	7047.47993827	2.32495061728	;
JU71	7071.16968879	4.83753799351	;
JU72	7076.69815538	3.2586812066	;
JU73	7055.59548611	2.71116666667	;
JU74	7079.57173394	2.10282790799	;
JU75	7074.09830729	3.6780563151	;
JU76	7068.30683192	6.39968209877	;
JU77	7081.05098922	4.35990313043	;
JU78	7081.62328787	3.45097965629	;
JU79	7056.14388021	1.9179298804	;
JU80	7075.56368152	4.57522125772	;
JU81	7161.11508488	6.65311565501	;
JU82	7086.75448495	3.11473524306	;
JU83	7063.45105252	2.9126177662	;
JU84	7107.27668467	3.43488824588	;
JU85	7114.68359375	7.1744140625	;
JU86	7032.63831019	2.42058883102	;
JU87	7026.4220679	4.9049212963	;
JU88	7044.35261944	3.15554553842	;
JU89	7112.33333333	5.19279166667	;
JU90	7027.3587963	4.64591049383	;
JU91	7097.4068287	2.61364293981	;
JU92	7077.97685185	5.0093284465	;
JU93	7134.06481481	1.31425925926	;
JU94	7104.99209105	4.55707960391	;
JU95	7101.63811728	4.44575	;
JU96	7096.70621142	4.67429089506	;
JU97	7116.10030864	1.71480246914	;
JU98	7109.94354424	4.45522273663	;
JU99	7040.34833618	6.63024343533	;
JU100	7119.79068757	6.36828826678	;
JU101	7103.24141673	3.1725975387	;
JU102	7119.54420573	5.52519618056	;
JU103	7045.34430986	4.74881354388	;
JU104	7102.55555556	6.71596296296	;
JU105	7063.96702723	3.11943486871	;
JU106	7069.91028277	3.46819718927	;
JU107	7035.58825231	1.60217416838	;
JU108	7101.1617988	4.54083976337	;
JU109	7061.79050926	1.26345543981	;
JU110	7031.58177217	4.68671417971	;
JU111	7036.11342593	1.50328240741	;
JU112	7062.18229167	4.14869791667	;
JU113	7090.01302083	3.37263368056	;
JU114	7068.32055664	4.2394757487	;
JU115	7085.20471267	6.12349603045	;
JU116	7085.01207542	5.6518832415	;
JU117	7118.02083333	7.64597916667	;
JU118	7103.76223315	4.75607156636	;
JU119	7057.31323945	4.559359375	;
JU120	7111.24392361	1.6424609375	;
JU121	7096.97225658	4.4038302228	;
JU122	7109.52136381	2.49532195216	;
JU123	7076.62914738	5.75681395882	;
JU124	7090.02213542	4.78021383102	;
JU125	7117.42933033	5.27963746021	;
JU126	7097.21782769	4.34995916522	;
JU127	7063.16440008	5.31782330247	;
JU128	7143.53819444	6.30597685185	;
JU129	7015.46412037	5.03466203704	;
JU130	7081.25925926	4.45714814815	;
JU131	7116.39656636	0.360252314815	;
JU132	7067.34360633	4.52066321253	;
JU133	7052.65794753	2.83259895833	;
JU134	7070.32486979	6.85321354167	;
JU135	7087.55598958	3.47812890625	;
JU136	7101.99305556	0.0	;
JU137	7079.44444444	3.57511111111	;
JU138	7116.48726852	5.94502546296	;
JU139	7074.87241211	0.374301106771	;
JU140	7056.15170661	2.30535509232	;
JU141	7192.24670175	5.50122731624	;
JU142	7103.29567509	6.50298078221	;
JU143	7063.49300808	4.5719318712	;
JU144	7073.57590664	1.82896045525	;
JU145	7107.43534548	3.08786408802	;
JU146	7017.8125	3.70778125	;
JU147	7082.01832562	3.73211033951	;
JU148	7034.14583333	83.8093541667	;
JU149	7090.91619213	4.28933275463	;
JU150	7082.42500965	3.57079362783	;
JU151	7076.33375129	3.45417021391	;
JU152	7065.6209375	5.83875	;
JU153	7066.78320312	2.597890625	;
JU154	7110.83550347	3.23857256301	;
JU155	7058.45385403	4.24391724311	;
JU156	7079.89411129	1.55213680917	;
JU157	7119.30555556	3.38077777778	;
JU158	7172.40740741	6.54367901235	;
JU159	7082.3264444	5.136890519	;
JU160	7135.69292535	5.59016059028	;
JU161	7083.38893095	3.95791137155	;
JU162	7096.22221258	2.04237152778	;
JU163	7106.37309661	2.20239149306	;
JU164	7097.93722394	3.4419848224	;
JU165	7079.16719093	4.1701946226	;
JU166	7075.25917861	4.61581700068	;
JU167	7079.42447917	2.52740559896	;
JU168	7064.57407407	3.93577777778	;
JU169	7091.1136621	2.28657851348	;
JU170	7086.72502748	1.84176444571	;
JU171	7080.68576389	5.92203125	;
JU172	7047.42222023	4.67319540292	;
JU173	7064.77893519	1.75061496914	;
JU174	7119.38298933	6.12855716307	;
JU175	7063.70216049	2.25905349794	;
JU176	7096.58368699	4.33781481481	;
JU177	7076.74913194	4.75178645833	;
JU178	7059.81957305	5.17864609053	;
JU179	7095.35389902	2.70307933666	;
JU180	7026.4220679	4.9049212963	;
JU181	7067.78221451	4.95786998457	;
JU182	7054.91358025	4.84811522634	;
JU183	7060.68142837	4.78701031069	;
JU184	7041.6891368	4.56432190544	;
JU185	7079.66666667	5.24755555556	;
JU186	7087.74984327	2.29453901427	;
JU187	7078.83333333	3.23283333333	;
JU188	7118.15817901	0.396970679012	;
JU189	7039.80729167	3.34023958333	;
JU190	7079.55670139	4.78111458333	;
JU191	7102.09555132	4.13651020367	;
JU192	7113.67972013	5.87931848898	;
JU193	7069.58075685	4.11645721165	;
JU194	7086.65625	0.7785	;
JU195	7078.00391348	3.07367997685	;
JU196	7071.58333333	2.80041898148	;
JU197	7081.34375	5.24306944444	;
JU198	7105.54600694	4.27692708333	;
JU199	7123.50503954	0.812382667824	;
JU200	7052.94930941	3.26670014575	;
JU201	7067.49694975	4.41794022741	;
JU202	7089.82516879	5.3078745298	;
JU203	7061.8098206	3.81676909722	;
JU204	7057.54791409	3.11117438272	;
JU205	7047.00466532	4.18768373843	;
JU206	7089.000625	3.12009375	;
JU207	7069.39041956	1.58712225116	;
JU208	7115.85360002	5.9516564429	;
JU209	7068.65698704	3.78606417985	;
JU210	7097.81725502	2.39284500386	;
JU211	7073.87239583	3.14134664352	;
JU212	7075.94130136	2.63593192998	;
JU213	7126.53140432	5.00191589506	;
JU214	7038.00115741	4.02600231481	;
JU215	7107.55218079	3.26350225453	;
JU216	7098.83541667	5.71382291667	;
JU217	7110.52216797	5.82967650463	;
JU218	7125.42947055	5.05798291991	;
JU219	7062.35257372	4.05745618731	;
JU220	7109.36458333	4.159875	;
JU221	7061.41024306	4.10388310185	;
JU222	7110.51463638	1.87468786169	;
JU223	7094.15509259	3.02623595036	;
JU224	7072.34682436	4.24100705295	;
JU225	7073.17013889	1.99940277778	;
JU226	7103.08072917	5.71896354167	;
JU227	7068.30683192	6.39968209877	;
JU228	7111.36602206	5.31057471708	;
JU229	7037.6578776	1.08124479167	;
JU230	7073.68326823	6.28945377604	;
JU231	7121.57899306	8.18586284722	;
JU232	7069.18858507	4.19166319444	;
JU233	7050.53388732	4.58177692178	;
JU234	7054.57060185	1.17996604938	;
JU235	7039.58723958	6.43573177083	;
JU236	7139.69921875	2.28337384259	;
JU237	7142.44371169	2.03058288323	;
JU238	7056.18923611	6.7011099537	;
JU239	7067.73543746	2.27777460395	;
JU240	7056.6175516	3.15062890625	;
JU241	7047.19801312	4.7809682999	;
JU242	7097.50390293	3.68162681448	;
JU243	7098.85002915	3.34852962106	;
JU244	7076.98203848	4.78055787037	;
JU245	7147.56018519	2.62313888889	;
JU246	7078.98071289	2.80116601563	;
JU247	7078.34587191	10.0195200617	;
JU248	7053.52060185	4.34580497685	;
JU249	7070.28052959	3.54078028549	;
JU250	7093.2661603	2.21455931713	;
JU251	7072.28125	3.089625	;
JU252	7100.94056773	3.23752990233	;
JU253	7066.67938829	5.33758478902	;
JU254	7057.38303219	3.16122003601	;
JU255	7044.65097046	5.45339024523	;
JU256	7132.28936793	41.4856764403	;
JU257	7112.64710126	3.38381206999	;
JU258	7100.94212963	5.65520524691	;
JU259	7063.77734375	0.932705729167	;
JU260	7090.43923611	1.038	;
JU261	7112.23524306	0.830934027778	;
JU262	7074.51392732	3.40063018121	;
JU263	7109.36458333	4.159875	;
JU264	7090.04147829	2.39605111581	;
JU265	7103.61513514	6.11137031612	;
JU266	7066.94670455	5.10867929215	;
JU267	7074.13155864	7.25944516782	;
JU268	7101.75222439	3.28586414931	;
JU269	7024.20985243	1.79184063947	;
JU270	7056.01215278	6.58021875	;
JU271	7067.44104605	3.50435332256	;
JU272	7047.43048887	4.39600219098	;
JU273	7056.56635564	2.26206986716	;
JU274	7100.70320578	3.10164543949	;
JU275	7127.60393519	0.765435570988	;
JU276	7094.4498071	1.85720601852	;
JU277	7107.44206734	0.837561069316	;
JU278	7062.06804591	2.48620736883	;
JU279	7109.08856739	4.75936920225	;
JU280	7084.7984375	4.08521875	;
JU281	7171.32892899	3.37683531474	;
JU282	7130.99847822	5.07202276235	;
JU283	7074.31645855	4.36759825505	;
JU284	7081.9034876	3.99925924318	;
JU285	7091.81100656	3.99038631684	;
JU286	7086.08671152	1.76422945602	;
JU287	7077.55303632	3.73853234314	;
JU288	7066.38162616	5.68545167824	;
JU289	7067.5906461	4.42112057533	;
JU290	7033.05140818	2.41423152971	;
JU291	7066.93070023	4.65426837384	;
JU292	7081.16525608	4.05981733057	;
JU293	7066.13786109	5.00374320224	;
JU294	7080.05555556	4.29927083333	;
JU295	7076.21233603	4.51963493441	;
JU296	7120.87065972	1.41049305556	;
JU297	7100.81018519	4.53772222222	;
JU298	7096.88205161	3.96463605967	;
JU299	7056.38958333	2.95801388889	;
JU300	7101.28009259	5.1512660108	;
JU301	7086.75448495	3.11473524306	;
JU302	7090.3860436	3.91266546103	;
JU303	7096.26743297	3.82591145833	;
JU304	7044.00655864	5.21130594136	;
JU305	7061.55604745	3.27042686632	;
JU306	7084.86208044	1.7419375	;
JU307	7067.25508571	4.39209280207	;
JU308	7125.29103898	6.74405091613	;
JU309	7082.77289497	7.32990125868	;
JU310	7068.05164931	7.14053211806	;
JU311	7074.46445795	4.31795595422	;
JU312	7054.77103338	3.65637905807	;
JU313	7064.99546682	1.90036651235	;
JU314	7048.81981417	2.09779232675	;
JU315	7092.49305556	4.88162860082	;
JU316	7067.96723566	3.63244237444	;
JU317	7070.21325231	2.65207407407	;
JU318	7086.25	0.1256875	;
JU319	7093.46458333	1.82555555556	;
JU320	7052.5338401	4.5203751286	;
JU321	7031.5	2.72241049383	;
JU322	7035.63019387	4.63581018519	;
JU323	7068.07191632	2.04905879424	;
JU324	7115.8762258	3.91676292468	;
JU325	7056.82638889	4.49173611111	;
JU326	7105.35763889	4.86575347222	;
JU327	7169.6564429	7.01299093364	;
JU328	7086.83020673	4.42264553661	;
JU329	7055.09446615	1.52269357639	;
JU330	6998.125	4.022	;
JU331	7055.45154321	2.93386625514	;
JU332	7010.03616898	3.56520138889	;
JU333	7056.69205193	5.2861923654	;
JU334	7082.18385417	3.59434114583	;
JU335	7131.02997595	1.57430092819	;
JU336	7082.66587095	1.8022854456	;
JU337	7064.23939236	4.78141145833	;
JU338	7116.97962963	2.22513425926	;
JU339	7045.80058232	6.80434979625	;
JU340	7112.04094329	2.34364583333	;
JU341	7064.46319444	2.58357638889	;
JU342	7023.24768519	3.236125	;
JU343	7036.99376402	2.87722616012	;
JU344	7039.27083333	4.05895833333	;
JU345	7053.77083333	4.05895833333	;
JU346	7083.16989776	4.23868200231	;
JU347	7110.05191901	4.77342031036	;
JU348	7086.73262201	3.16925885738	;
JU349	7096.09311652	4.59356229995	;
JU350	7108.19577878	5.09052626546	;
JU351	7091.09523762	1.04921550417	;
JU352	7060.8731872	3.998714184	;
JU353	7121.60242734	3.96437384259	;
JU354	7059.1930218	2.8434625075	;
JU355	7027.06444509	6.69025227195	;
JU356	7022.55143229	6.62124305556	;
JU357	7106.37092697	4.66394313432	;
JU358	7088.70836548	4.5063755787	;
JU359	7105.93880208	4.19928356481	;
JU360	7109.25705188	4.34147747878	;
JU361	7085.48573345	4.38214126198	;
JU362	7129.08467185	4.12281108539	;
JU363	7093.37882306	3.55437242798	;
JU364	7036.84846362	4.21087095341	;
JU365	7112.83333333	6.97865277778	;
JU366	7046.22482639	5.37846050347	;
JU367	7137.73194163	3.70543746428	;
JU368	7087.00660807	2.37044259983	;
JU369	7067.92405509	4.98703871437	;
JU370	7038.36328125	4.23335980903	;
JU371	7120.87065972	1.41049305556	;
JU372	7100.73549383	2.60638117284	;
JU373	7106.29616127	1.88112943673	;
JU374	7123.23904321	0.262396604938	;
JU375	7139.43213735	0.419335776749	;
JU376	7113.68402778	1.44384027778	;
JU377	7053.77083333	4.05895833333	;
JU378	7039.27083333	4.05895833333	;
JU379	7061.42011924	3.83110038366	;
JU380	7188.875	2.1085	;
JU381	7038.16927083	1.59902430556	;
JU382	7053.94791667	4.10777893519	;
JU383	7136.27438191	3.28638222576	;
JU384	7107.31912294	5.13318544239	;
JU385	7080.31534722	5.88654155816	;
JU386	7036.66097608	5.17108246528	;
JU387	7110.92513021	3.22154828559	;
JU388	7054.67903225	3.29671256975	;
JU389	7067.11138387	3.90687806414	;
JU390	7074.46296296	4.27207407407	;
JU391	7046.22482639	5.37846050347	;
JU392	7086.84526749	4.28331481481	;
JU393	7086.55584491	6.68907272377	;
JU394	7039.58723958	6.43573177083	;
JU395	7058.55081471	4.56232141113	;
JU396	7130.08340664	1.90846831597	;
JU397	7121.390625	1.41163541667	;
JU398	7141.20910494	4.16498148148	;
JU399	7091.01180577	4.08473746142	;
JU400	7101.40451389	4.48310416667	;
JU401	7060.79976852	5.30341550926	;
JU402	7077.55687572	5.81493724682	;
JU403	7051.67013889	6.09647222222	;
JU404	7106.3493716	3.52516720786	;
JU405	7112.11930941	4.68305401235	;
JU406	7100.66666667	5.47472222222	;
JU407	7029.4823829	3.71932910156	;
JU408	7090.89510995	3.56969509549	;
JU409	7103.06003752	3.16801440229	;
JU410	7103.52083333	5.78466666667	;
JU411	7103.10655382	3.47185514323	;
JU412	7125.99085648	5.71377469136	;
JU413	7023.83159722	1.96205729167	;
JU414	7073.18997428	2.87705092593	;
JU415	7033.03885295	4.13492326101	;
JU416	7056.47265625	6.23135532407	;
JU417	7121.390625	1.41163541667	;
JU418	7104.60451496	4.70126305298	;
JU419	7128.33333333	4.152	;
JU420	7112.03819444	3.08048611111	;
JU421	7073.56458695	6.61991984954	;
JU422	7083.55166057	3.77480086177	;
JU423	7059.21915813	3.83111519955	;
JU424	7093.42243763	4.18558793081	;
JU425	7055.33365397	2.72017879198	;
JU426	7075.02071502	6.22793106996	;
JU427	7101.08351016	5.08969643776	;
JU428	7051.00453318	4.08100607639	;
JU429	7066.31687243	4.23746784979	;
JU430	7067.05491376	4.61369275756	;
JU431	7067.72524434	4.79667071759	;
JU432	7079.140625	0.991534722222	;
JU433	7074.00035365	5.11673813657	;
JU434	7088.83661265	6.39012847222	;
JU435	7087.49392361	5.27206553819	;
JU436	7039.5608724	2.72841987365	;
JU437	7062.27083333	4.4643125	;
JU438	7087.58878279	2.93390842014	;
JU439	7040.03645833	5.82453125	;
JU440	7071.42675781	3.95137060547	;
JU441	7092.97490496	2.86439033565	;
JU442	7076.51197917	2.86755555556	;
JU443	7148.18994406	1.99433207948	;
JU444	7098.028361	1.34561153158	;
JU445	7081.00569059	3.5137009495	;
JU446	7128.88888889	5.92533333333	;
JU447	7041.96359592	3.95506358507	;
JU448	7109.49934896	3.89734129051	;
JU449	7086.74500868	3.74711154514	;
JU450	7073.20195956	2.45623426649	;
JU451	7136.16827367	4.10841625876	;
JU452	7031.18606888	1.82331917016	;
JU453	7102.12794777	3.39653942419	;
JU454	7038.19475612	7.67220035562	;
JU455	7056.01281186	2.41451679848	;
JU456	7076.3365162	3.62498090278	;
JU457	7059.13802083	2.689125	;
JU458	7081.99205006	2.12892932581	;
JU459	7084.63228202	3.95098099923	;
JU460	7060.43171296	2.53293467882	;
JU461	7114.19895833	1.69885416667	;
JU462	7058.875	3.154625	;
JU463	7041.83424769	2.50317563657	;
JU464	7053.13923611	1.93084722222	;
JU465	7046.9301106	3.15413656336	;
JU466	7070.25462963	3.89650462963	;
JU467	7106.51600043	2.45038823785	;
JU468	7044.39930556	3.08590277778	;
JU469	7066.45061728	4.07150540123	;
JU470	7109.36548675	1.54365807184	;
JU471	7139.83984375	5.3756328125	;
JU472	7095.41254853	1.61058402657	;
JU473	7097.15752148	1.75568074299	;
JU474	7109.45511269	4.11584674399	;
JU475	7060.55524706	2.73484581688	;
JU476	7080.37693747	3.06338231873	;
JU477	7147.43402778	6.31568287037	;
JU478	7122.66681938	4.04982344715	;
JU479	7150.73925781	6.38896119973	;
JU480	7050.16501093	4.66404067403	;
JU481	7081.53038194	3.7226398534	;
JU482	7084.52777778	3.13905555556	;
JU483	7113.39315611	2.52767013889	;
JU484	7037.35039438	3.53246433471	;
JU485	7099.35561343	2.68630497685	;
JU486	7177.32407407	3.22437037037	;
JU487	7084.79383681	0.982924045139	;
JU488	7132.60416667	6.30379166667	;
JU489	7085.13702418	3.58322672325	;
JU490	7088.16524938	4.35491581469	;
JU491	7083.90384115	3.67978468605	;
JU492	7109.69019097	3.17801385674	;
JU493	7087.60763889	4.73168935185	;
JU494	7095.74323238	4.23947926312	;
JU495	7048.83301505	2.10990523727	;
JU496	7015.46412037	5.03466203704	;
JU497	7096.42083333	1.86393923611	;
JU498	7125.43024691	7.79624382716	;
JU499	7045.48611111	4.08869444444	;
JU500	7135.48263889	2.49212152778	;
JU501	7071.55867948	2.10164371499	;
JU502	7106.04723289	2.93123370587	;
JU503	7137.27777778	4.36507638889	;
JU504	7089.58848862	3.59582764275	;
JU505	7098.42191117	4.52775842737	;
JU506	7078.21875	3.9898125	;
JU507	7086.89809646	3.13944389739	;
JU508	7103.69478252	3.88180465736	;
JU509	7084.18018633	1.81810575509	;
JU510	7077.4985653	3.70700030275	;
JU511	7119.95833333	4.29929166667	;
JU512	7088.24329254	3.36763577007	;
JU513	7069.09400318	3.281173802	;
JU514	7036.99376402	2.87722616012	;
JU515	7058.453125	4.095125	;
JU516	7084.70518462	3.10857957528	;
JU517	7118.10610506	1.03558263675	;
JU518	7071.58333333	2.80041898148	;
JU519	7069.35208333	2.16831944444	;
JU520	7102.40242413	4.83243320795	;
JU521	7059.86032907	1.27926907236	;
JU522	7083.20775463	3.86418229167	;
JU523	7050.53388732	4.58177692178	;
JU524	7039.93922164	3.58564236111	;
JU525	7126.2609272	3.58341971792	;
JU526	7070.03499349	2.81926302083	;
JU527	7026.06809828	6.20945279948	;
JU528	7067.49694975	4.41794022741	;
JU529	7097.84239969	3.73512827932	;
JU530	7050.47922042	3.99995386044	;
JU531	7018.70095486	3.14617751736	;
JU532	7053.15877821	3.83797916667	;
JU533	7065.56716228	3.27869861091	;
JU534	7079.99826087	5.53546758054	;
JU535	7094.16978122	4.54644114101	;
JU536	7039.7620081	3.77698119213	;
JU537	7105.97193287	5.31941883681	;
JU538	7065.52502894	3.92347974537	;
JU539	7052.6250777	3.77626433899	;
JU540	7110.96574496	3.44678824669	;
JU541	7074.72878689	2.32786646412	;
JU542	7083.29096499	3.32372477816	;
JU543	7052.46098573	5.30819266011	;
JU544	7059.5625	3.06525	;
JU545	7103.29463735	5.16275125386	;
JU546	7119.30555556	3.38077777778	;
JU547	7026.49612992	2.20670703125	;
JU548	7111.04035976	3.68760616802	;
JU549	7073.89989556	4.96224262492	;
JU550	7047.40692445	3.64970485594	;
JU551	7189.14409722	7.74242361111	;
JU552	7075.21111111	8.27781481481	;
JU553	7050.30700231	5.2476869213	;
JU554	7052.6250777	3.77626433899	;
JU555	7041.55513224	5.41959410499	;
JU556	7098.58685057	1.57776723251	;
JU557	7063.80760245	4.0458694916	;
JU558	7123.4212963	3.14836574074	;
JU559	7118.63888889	2.33736111111	;
JU560	7091.73148148	1.37677777778	;
JU561	7043.04565972	3.216859375	;
JU562	7119.40972222	2.80930555556	;
JU563	7134.42708333	6.55653356481	;
JU564	7121.5162037	6.04566820988	;
JU565	7105.75631714	4.23075244141	;
JU566	7097.38006727	1.64058246528	;
JU567	7011.24388979	3.18165075231	;
JU568	7135.74454931	2.20134351744	;
JU569	7033.38734568	3.23836419753	;
JU570	7151.06221788	1.44396325231	;
JU571	7090.796875	0.768090277778	;
JU572	7139.43240741	4.54384490741	;
JU573	7058.0304784	5.94709002058	;
JU574	7050.71908758	4.3785373505	;
JU575	7110.96168981	2.10528549383	;
JU576	7133.83831411	3.86008342621	;
JU577	7063.47213542	2.71256423611	;
JU578	7096.5823206	1.293953125	;
JU579	7078.3058015	2.27590248843	;
JU580	7088.9609375	0.446888888889	;
JU581	7094.87369792	2.64041796875	;
JU582	7093.47834322	3.91554149788	;
JU583	7099.13496455	5.0210910735	;
JU584	7093.69664271	3.62371330054	;
JU585	7118.2094647	2.3394921875	;
JU586	7059.01953125	3.32020963542	;
JU587	7090.61427951	4.04476345486	;
JU588	7069.98949856	2.68770829528	;
JU589	7072.20210605	2.36644171274	;
JU590	7098.15798611	2.92812070795	;
JU591	7108.7928342	2.52956032986	;
JU592	7087.76437114	3.35145100309	;
JU593	7087.76437114	3.35145100309	;
JU594	7079.35868327	3.27107461812	;
JU595	7108.65492757	4.57918991503	;
JU596	7157.66276042	3.27020442708	;
JU597	7061.74025849	4.51186295439	;
JU598	7063.61032343	5.17751282793	;
JU599	7111.91615729	5.68410167201	;
JU600	7094.9628424	4.48195669367	;
JU601	7070.72690168	2.16040801826	;
JU602	7043.10373264	2.09413541667	;
JU603	7048.83882861	2.75264465181	;
JU604	7071.90442301	4.77471701226	;
JU605	7112.6255787	2.78724305556	;
JU606	7092.78980195	4.79368659979	;
JU607	7094.78744213	7.77206346451	;
JU608	7133.5840535	4.7756298011	;
JU609	7155.83333333	2.368	;
JU610	7076.95106739	5.24869701646	;
JU611	7123.16420718	4.6739681713	;
JU612	7066.34663342	0.913067639009	;
JU613	7063.57371238	5.4745192419	;
JU614	7021.6484375	1.66618229167	;
JU615	7114.07286137	2.63574041924	;
JU616	7098.25978371	4.29093390119	;
JU617	7082.32986111	4.3432494856	;
JU618	7095.35389902	2.70307933666	;
JU619	7072.20210605	2.36644171274	;
JU620	7094.15509259	3.02623595036	;
JU621	7065.29926215	3.54631298828	;
JU622	7055.59165702	2.5092888696	;
JU623	7087.58878279	2.93390842014	;
JU624	7104.91191185	0.784787189751	;
JU625	7038.94627058	3.95110853909	;
JU626	7089.72715426	4.60930779904	;
JU627	7017.65941278	3.69712979038	;
JU628	7072.31061921	5.83864467593	;
JU629	7032.44733796	2.07099897119	;
JU630	7087.57879748	3.46507906271	;
JU631	7076.87802463	2.76143446181	;
JU632	7162.5721875	5.74429166667	;
JU633	7100.2108941	3.28771209491	;
JU634	7042.29957923	4.77459889654	;
JU635	7076.58215342	3.13919216178	;
JU636	7110.81944444	4.93577430556	;
JU637	7079.3798011	3.05143758573	;
JU638	7081.65310531	2.89402164513	;
JU639	7125.29103898	6.74405091613	;
JU640	7065.81828704	2.95871759259	;
JU641	7048.95068036	4.04835269417	;
JU642	7085.17469377	0.781861593364	;
JU643	7061.38888889	7.02833333333	;
JU644	7068.91490854	0.971208202946	;
JU645	7112.06000836	5.26968057967	;
JU646	7067.27509145	4.91501063457	;
JU647	7077.1807786	1.68157093943	;
JU648	7108.63064236	4.57390617766	;
JU649	7038.654966	3.45047444661	;
JU650	7109.15681263	2.1559914159	;
JU651	7098.7117091	3.15008063272	;
JU652	7152.46193416	4.88960390947	;
JU653	7045.15889034	3.50585253906	;
JU654	7104.60694818	4.51260842497	;
JU655	7091.15434068	2.45602005369	;
JU656	7043.17144097	1.55941319444	;
JU657	7088.44201067	1.16231696888	;
JU658	7103.71821373	4.20899582047	;
JU659	7096.11206544	5.87976377435	;
JU660	7073.84027778	2.79144444444	;
JU661	7065.60201389	4.28662017747	;
JU662	7074.82226241	2.61928025736	;
JU663	7124.63580024	4.63011899617	;
JU664	7108.77924865	0.621084538966	;
JU665	7124.8797821	4.97662904475	;
JU666	7059.64746931	3.42912744654	;
JU667	7108.44861593	4.18135252701	;
JU668	7054.28051055	4.05804906121	;
JU669	7090.59066358	3.26094444444	;
JU670	7083.81022135	3.13304150391	;
JU671	7048.57179136	4.90788817003	;
JU672	7118.86285794	1.2569213606	;
JU673	7096.00303819	4.5650405816	;
JU674	7044.26929012	4.11273032407	;
JU675	7160.29759838	3.99838859954	;
JU676	7105.56690056	3.57759739704	;
JU677	7092.24757716	1.92297337963	;
JU678	7081.80356513	2.90733810764	;
JU679	7052.19042969	3.02200260417	;
JU680	7056.84162005	4.22590514975	;
JU681	7098.14178241	0.346	;
JU682	7080.42028834	3.90441617889	;
JU683	7084.68937757	2.92114711934	;
JU684	7081.78134645	3.79082137346	;
JU685	7114.24334491	4.86854398148	;
JU686	7093.47956676	2.75384565758	;
JU687	7015.71259324	7.55457480281	;
JU688	7071.83758073	5.05534446445	;
JU689	7045.40277778	3.65652777778	;
JU690	7059.5625	3.4545	;
JU691	7020.41232639	6.61444907407	;
JU692	7052.65625	3.77896180556	;
JU693	7058.65538194	2.86971229384	;
JU694	7052.58409831	1.48170594618	;
JU695	7073.33873457	3.48298225309	;
JU696	7054.64388021	3.74765711806	;
JU698	7026.00774016	1.97523599055	;
JU699	7112.72851562	4.24084114583	;
JU700	7090.17815972	1.19250694444	;
JU701	7055.13471137	3.03219986979	;
JU702	7063.24785237	3.16283179012	;
JU703	7077.19075521	2.22958658854	;
JU704	7057.4594827	4.63421744792	;
JU705	7119.97077546	1.5442349537	;
JU706	7117.36342593	7.49688888889	;
JU707	7066.02414641	5.72972583912	;
JU708	7106.13355195	2.60376453189	;
JU709	7076.34490741	3.01638425926	;
JU710	7085.36605494	3.00561984843	;
JU711	7075.55555556	3.35888888889	;
JU712	7073.41999173	3.43526456888	;
JU713	7083.69122038	3.98844095682	;
JU714	7037.8672518	2.63162834362	;
JU715	7058.20019062	2.43041785057	;
JU716	7076.78125	4.45466666667	;
JU717	7149.27626873	2.45457047325	;
JU718	7052.88807911	3.50487725236	;
JU719	7150.41666667	2.56961111111	;
JU720	7084.85876736	1.31190972222	;
JU721	7108.75488683	4.87467901235	;
JU722	7043.25405093	4.36060416667	;
JU723	7090.59895833	2.88566666667	;
JU724	7094.87369792	2.64041796875	;
JU725	7082.64409722	5.79484953704	;
JU726	7039.6273546	2.08570855035	;
JU727	7039.90240524	1.92650817419	;
JU728	7037.13599537	2.2773275463	;
JU729	7113.2521613	2.08348660944	;
JU730	7043.25090664	2.12060058192	;
JU731	7052.77352973	2.38585803675	;
JU732	7035.8172309	2.52589554398	;
JU733	7049.15299479	4.03110677083	;
JU734	7047.31481481	3.06113194444	;
JU735	7131.57495117	4.0314499783	;
JU736	7130.140625	5.54262065972	;
JU737	7061.27604167	0.854166666667	;
JU738	7061.92823043	4.49712318385	;
JU739	7064.74739583	3.77551757813	;
JU740	7107.09403503	1.70372501929	;
JU741	7078.5902882	5.06108147993	;
JU742	7092.87961697	2.49491395399	;
JU743	7079.59876543	3.74707253086	;
JU744	7072.70833333	5.37011111111	;
JU745	7020.1875	3.040875	;
JU746	7128.1893838	3.55801525125	;
JU747	7055.56944444	2.02555555556	;
JU748	7092.18712119	2.57704387297	;
JU749	7035.96505418	5.65847880752	;
JU750	7083.66550926	3.26062268519	;
JU751	7038.00115741	4.02600231481	;
JU752	7038.19475612	7.67220035562	;
JU753	7116.66053602	2.20925984701	;
JU754	7113.34071181	4.24439279514	;
JU755	7078.97980324	3.04617515432	;
JU756	7083.63238751	3.93010484484	;
JU757	7068.45389912	1.82704134617	;
JU758	7066.61018263	3.60529262165	;
JU759	7074.11399059	4.50998392691	;
JU760	7049.01051264	5.19116345968	;
JU761	7079.5783179	4.54024742798	;
JU762	7103.20184703	0.15691796875	;
JU763	7140.16642554	5.81378607253	;
JU764	7090.16339337	1.64123562283	;
JU765	7072.21458333	4.81130324074	;
JU766	7094.12272591	4.58872666967	;
JU767	7122.5812103	2.31080662187	;
JU768	7105.3438786	5.68720151749	;
JU769	7083.70380015	3.6904994213	;
JU770	7055.04041943	4.56946331036	;
JU771	7079.53103567	3.25538953189	;
JU772	7053.13371806	4.39657039823	;
JU773	7065.314099	3.1731902545	;
JU774	7079.89411129	1.55213680917	;
JU775	7112.48206822	4.07230242091	;
JU776	7048.16096704	2.96009367163	;
JU777	7085.01207542	5.6518832415	;
JU778	7082.43287037	5.72071682099	;
JU779	7059.9880562	3.50909924173	;
JU780	7071.86741761	3.80688496934	;
JU781	7100.30376399	2.06129224537	;
JU782	7089.625	0.335166666667	;
JU783	7082.53264728	3.59129646324	;
JU784	7092.22562211	2.76028096065	;
JU785	7062.46707819	4.84735871056	;
JU786	7127.25207262	4.86274661708	;
JU787	7094.34685249	2.80148466435	;
JU788	7100.26953125	1.26068359375	;
JU789	7037.61388317	3.39653406493	;
JU790	7053.83502087	4.52605098182	;
JU791	7082.06764805	6.1383938561	;
JU792	7074.45524691	7.24424710648	;
JU793	7072.74826389	3.95028645833	;
JU794	7116.59375	3.75545052083	;
JU795	7105.6515625	3.23527690972	;
JU796	7102.81918724	3.55759268904	;
JU797	7078.7868545	4.89204206311	;
JU798	7053.74594506	5.02545247396	;
JU799	7027.87338656	4.40848941454	;
JU800	7100.70965893	4.34221884645	;
JU801	7073.96495226	4.42316905382	;
JU802	7083.37725694	6.3138595679	;
JU803	7081.52703564	2.25784080826	;
JU804	7139.68876913	6.13266845368	;
JU805	7075.21111111	8.27781481481	;
JU806	7057.71492151	3.94460422092	;
JU807	7095.28327064	1.89171370242	;
JU808	7042.75186145	4.2033144682	;
JU809	7108.90856481	1.66429398148	;
JU810	7038.94862327	4.82970120503	;
JU811	7030.20264166	4.25604910643	;
JU812	7061.30767446	5.36506484697	;
JU813	7049.71862513	5.01197955938	;
JU814	7030.20264166	4.25604910643	;
JU815	7041.89791343	4.43260353522	;
JU816	7049.14520824	4.9599338647	;
JU817	7043.76020731	4.86879468753	;
JU818	7078.5625	0.949638888889	;
JU819	7157.46064815	6.04842592593	;
JU820	7082.65625	3.45259375	;
JU821	7101.07204861	4.24805864198	;
JU822	7069.10069444	4.41233680556	;
JU823	7064.93802142	2.89515447192	;
JU824	7100.58709491	4.47390625	;
JU825	7060.4375	1.784	;
JU826	7034.37280273	3.45469506836	;
JU827	7091.8604278	3.38869822511	;
JU828	7050.93702846	4.55458710562	;
JU829	7055.33479275	5.27026255064	;
JU830	7031.18606888	1.82331917016	;
JU831	7126.72704475	3.65928510802	;
JU832	7119.38298933	6.12855716307	;
JU833	7061.66030093	4.7927650463	;
JU834	7071.45288387	437.904242284	;
JU835	7111.76726466	2.46681597222	;
JU836	7114.76401448	4.18302494956	;
JU837	7066.61018263	3.60529262165	;
JU838	7077.8176149	3.42406354287	;
JU839	7073.25358475	2.04371495628	;
JU840	7068.33076968	3.72818547454	;
JU841	7047.38187516	2.20237928904	;
JU842	7088.59271918	4.1824568911	;
JU843	7087.49537037	7.1905	;
JU844	7068.16666667	5.24755555556	;
JU845	7068.84218178	3.61715406021	;
JU846	7098.7499367	3.54809463162	;
JU847	7053.62952112	3.66474522569	;
JU848	7032.08680556	3.29077300347	;
JU849	7039.8203125	4.14870529514	;